<?xml version="1.0" encoding="UTF-8"?>

<!-- generated on 03/13/19 02:48:37 by Eclipse SUMO netconvert Version 1.0.1
<configuration xmlns:xsi="http://www.w3.org/2001/XMLSchema-instance" xsi:noNamespaceSchemaLocation="http://sumo.dlr.de/xsd/netconvertConfiguration.xsd">

    <input>
        <node-files value="b.nod.xml"/>
        <edge-files value="b.edg.xml"/>
        <connection-files value="b.con.xml"/>
    </input>

    <output>
        <output-file value="b.net.xml"/>
    </output>

</configuration>
-->

<net version="1.0" junctionCornerDetail="5" limitTurnSpeed="5.50" xmlns:xsi="http://www.w3.org/2001/XMLSchema-instance" xsi:noNamespaceSchemaLocation="http://sumo.dlr.de/xsd/net_file.xsd">

    <location netOffset="600.00,400.00" convBoundary="0.00,0.00,3225.00,820.00" origBoundary="-600.00,-400.00,2625.00,420.00" projParameter="!"/>

    <edge id=":node-AE1_0" function="internal">
        <lane id=":node-AE1_0_0" index="0" speed="7.29" length="8.43" width="3.25" shape="724.00,418.00 716.00,417.88"/>
        <lane id=":node-AE1_0_1" index="1" speed="7.29" length="8.43" width="3.25" shape="724.00,418.00 721.53,417.47 720.00,416.31 718.47,415.15 716.00,414.63"/>
        <lane id=":node-AE1_0_2" index="2" speed="9.02" length="8.43" width="3.25" shape="724.00,414.00 721.50,414.61 720.00,415.94 718.50,417.27 716.00,417.88"/>
        <lane id=":node-AE1_0_3" index="3" disallow="bus" speed="9.02" length="8.43" width="3.25" shape="724.00,414.00 721.57,413.59 720.00,412.69 718.43,411.79 716.00,411.38"/>
        <lane id=":node-AE1_0_4" index="4" disallow="bus" speed="9.02" length="8.43" width="3.25" shape="724.00,410.00 721.59,409.71 720.00,409.06 718.41,408.42 716.00,408.13"/>
        <lane id=":node-AE1_0_5" index="5" disallow="bus" speed="9.02" length="8.43" width="3.25" shape="724.00,406.00 721.61,405.82 720.00,405.44 718.39,405.05 716.00,404.88"/>
        <lane id=":node-AE1_0_6" index="6" speed="9.02" length="8.43" width="3.25" shape="724.00,402.00 716.00,401.63"/>
    </edge>
    <edge id=":node-AN1_0" function="internal">
        <lane id=":node-AN1_0_0" index="0" speed="13.89" length="8.27" shape="569.37,502.72 569.49,500.21 568.79,498.45 568.10,496.69 568.21,494.18"/>
        <lane id=":node-AN1_0_1" index="1" speed="13.89" length="8.27" shape="569.37,502.72 571.31,494.96"/>
        <lane id=":node-AN1_0_2" index="2" speed="13.89" length="8.27" shape="572.48,503.49 574.42,495.73"/>
    </edge>
    <edge id=":node-AN2_0" function="internal">
        <lane id=":node-AN2_0_0" index="0" speed="3.65" length="4.67" shape="501.55,800.39 500.49,801.36 499.61,801.55 498.93,800.97 498.45,799.61"/>
    </edge>
    <edge id=":node-AO0_0" function="internal">
        <lane id=":node-AO0_0_0" index="0" speed="11.46" length="28.45" shape="621.60,417.88 612.18,418.58 605.05,420.70 600.21,424.24 597.65,429.19"/>
    </edge>
    <edge id=":node-AO0_1" function="internal">
        <lane id=":node-AO0_1_0" index="0" allow="bus" speed="7.29" length="45.53" width="4.00" shape="621.60,414.63 576.10,414.00"/>
        <lane id=":node-AO0_1_1" index="1" disallow="bus" speed="9.39" length="45.53" width="4.00" shape="621.60,411.38 576.10,410.00"/>
        <lane id=":node-AO0_1_2" index="2" disallow="bus" speed="9.39" length="45.53" width="4.00" shape="621.60,408.13 576.10,406.00"/>
        <lane id=":node-AO0_1_3" index="3" disallow="bus" speed="9.39" length="45.53" width="4.00" shape="621.60,404.88 576.10,402.00"/>
    </edge>
    <edge id=":node-AO0_5" function="internal">
        <lane id=":node-AO0_5_0" index="0" speed="11.46" length="9.79" shape="621.60,401.63 614.64,397.79 613.71,396.20"/>
    </edge>
    <edge id=":node-AO0_23" function="internal">
        <lane id=":node-AO0_23_0" index="0" speed="11.46" length="29.46" shape="613.71,396.20 609.27,388.63 606.23,377.65 606.26,368.36"/>
    </edge>
    <edge id=":node-AO0_6" function="internal">
        <lane id=":node-AO0_6_0" index="0" disallow="bus" speed="9.14" length="22.38" width="4.00" shape="612.47,369.91 611.53,376.95 612.74,381.98 616.10,384.99 621.60,386.00"/>
    </edge>
    <edge id=":node-AO0_7" function="internal">
        <lane id=":node-AO0_7_0" index="0" speed="13.89" length="61.11" shape="612.47,369.91 597.65,429.19"/>
        <lane id=":node-AO0_7_1" index="1" speed="13.89" length="61.11" shape="609.37,369.13 594.54,428.42"/>
    </edge>
    <edge id=":node-AO0_9" function="internal">
        <lane id=":node-AO0_9_0" index="0" disallow="bus" speed="11.82" length="18.07" width="4.00" shape="609.37,369.13 604.21,383.51 602.59,385.79"/>
    </edge>
    <edge id=":node-AO0_24" function="internal">
        <lane id=":node-AO0_24_0" index="0" speed="11.82" length="32.65" width="4.00" shape="602.59,385.79 596.94,393.78 587.58,399.95 576.10,402.00"/>
    </edge>
    <edge id=":node-AO0_10" function="internal">
        <lane id=":node-AO0_10_0" index="0" speed="11.82" length="35.55" shape="576.10,382.13 588.01,381.26 597.00,378.68 603.09,374.38 606.26,368.36"/>
    </edge>
    <edge id=":node-AO0_11" function="internal">
        <lane id=":node-AO0_11_0" index="0" allow="bus" speed="7.66" length="45.56" width="4.00" shape="576.10,385.38 621.60,382.00"/>
        <lane id=":node-AO0_11_1" index="1" disallow="bus" speed="9.78" length="45.56" width="4.00" shape="576.10,388.63 621.60,386.00"/>
        <lane id=":node-AO0_11_2" index="2" disallow="bus" speed="9.78" length="45.56" width="4.00" shape="576.10,391.88 621.60,390.00"/>
        <lane id=":node-AO0_11_3" index="3" disallow="bus" speed="9.78" length="45.56" width="4.00" shape="576.10,395.13 621.60,394.00"/>
    </edge>
    <edge id=":node-AO0_15" function="internal">
        <lane id=":node-AO0_15_0" index="0" speed="11.78" length="4.62" shape="576.10,398.38 580.32,400.26"/>
    </edge>
    <edge id=":node-AO0_25" function="internal">
        <lane id=":node-AO0_25_0" index="0" speed="11.78" length="33.33" shape="580.32,400.26 583.55,401.70 589.98,409.76 594.09,419.63 594.54,428.42"/>
    </edge>
    <edge id=":node-AO0_16" function="internal">
        <lane id=":node-AO0_16_0" index="0" allow="bus" speed="8.35" length="18.45" width="4.00" shape="585.23,426.09 585.79,420.80 584.46,417.02 581.23,414.76 576.10,414.00"/>
    </edge>
    <edge id=":node-AO0_17" function="internal">
        <lane id=":node-AO0_17_0" index="0" disallow="bus" speed="9.14" length="22.38" width="4.00" shape="585.23,426.09 586.17,419.05 584.96,414.02 581.61,411.01 576.10,410.00"/>
    </edge>
    <edge id=":node-AO0_18" function="internal">
        <lane id=":node-AO0_18_0" index="0" speed="13.89" length="61.33" shape="585.23,426.09 589.88,411.61 596.66,393.59 602.98,377.38 606.26,368.36"/>
        <lane id=":node-AO0_18_1" index="1" speed="13.89" length="61.33" shape="588.34,426.87 606.26,368.36"/>
    </edge>
    <edge id=":node-AO0_20" function="internal">
        <lane id=":node-AO0_20_0" index="0" allow="bus" speed="9.73" length="34.40" width="4.00" shape="588.34,426.87 594.62,407.24 601.22,395.13"/>
    </edge>
    <edge id=":node-AO0_21" function="internal">
        <lane id=":node-AO0_21_0" index="0" disallow="bus" speed="11.84" length="24.34" width="4.00" shape="588.34,426.87 593.50,412.49 598.73,405.09"/>
    </edge>
    <edge id=":node-AO0_22" function="internal">
        <lane id=":node-AO0_22_0" index="0" disallow="bus" speed="11.84" length="14.39" width="4.00" shape="591.44,427.64 596.10,414.67 596.46,414.18"/>
    </edge>
    <edge id=":node-AO0_26" function="internal">
        <lane id=":node-AO0_26_0" index="0" speed="9.73" length="25.21" width="4.00" shape="601.22,395.13 602.26,393.22 611.25,384.80 621.60,382.00"/>
    </edge>
    <edge id=":node-AO0_27" function="internal">
        <lane id=":node-AO0_27_0" index="0" speed="11.84" length="26.38" width="4.00" shape="598.73,405.09 600.76,402.22 610.13,396.05 621.60,394.00"/>
    </edge>
    <edge id=":node-AO0_28" function="internal">
        <lane id=":node-AO0_28_0" index="0" speed="11.84" length="31.49" width="4.00" shape="596.46,414.18 602.68,405.41 611.18,399.85 621.60,398.00"/>
    </edge>
    <edge id=":node-AS1_0" function="internal">
        <lane id=":node-AS1_0_0" index="0" speed="13.89" length="8.40" shape="627.52,296.51 627.41,299.02 628.10,300.78 628.80,302.54 628.69,305.04"/>
        <lane id=":node-AS1_0_1" index="1" speed="13.89" length="8.40" shape="627.52,296.51 625.58,304.27"/>
    </edge>
    <edge id=":node-AS2_0" function="internal">
        <lane id=":node-AS2_0_0" index="0" speed="3.65" length="4.67" shape="698.45,-0.39 699.51,-1.36 700.39,-1.55 701.07,-0.97 701.55,0.39"/>
    </edge>
    <edge id=":node-AW1_0" function="internal">
        <lane id=":node-AW1_0_0" index="0" speed="7.66" length="9.85" width="3.25" shape="476.00,386.00 484.00,385.38"/>
        <lane id=":node-AW1_0_1" index="1" speed="7.66" length="9.85" width="3.25" shape="476.00,386.00 479.32,387.93 480.00,392.19 480.68,396.44 484.00,398.38"/>
        <lane id=":node-AW1_0_2" index="2" speed="9.76" length="9.85" width="3.25" shape="476.00,390.00 478.83,388.77 480.00,386.06 481.17,383.36 484.00,382.13"/>
        <lane id=":node-AW1_0_3" index="3" disallow="bus" speed="9.76" length="9.85" width="3.25" shape="476.00,390.00 478.39,389.79 480.00,389.31 481.61,388.84 484.00,388.63"/>
        <lane id=":node-AW1_0_4" index="4" disallow="bus" speed="9.76" length="9.85" width="3.25" shape="476.00,390.00 478.41,390.29 480.00,390.94 481.59,391.58 484.00,391.88"/>
        <lane id=":node-AW1_0_5" index="5" disallow="bus" speed="9.76" length="9.85" width="3.25" shape="476.00,394.00 478.39,394.18 480.00,394.56 481.61,394.95 484.00,395.13"/>
        <lane id=":node-AW1_0_6" index="6" speed="9.76" length="9.85" width="3.25" shape="476.00,398.00 484.00,398.38"/>
    </edge>
    <edge id=":node-AW2_0" function="internal">
        <lane id=":node-AW2_0_0" index="0" disallow="bus" speed="4.08" length="5.84" width="4.00" shape="0.00,402.00 -1.50,401.00 -2.00,400.00 -1.50,399.00 0.00,398.00"/>
    </edge>
    <edge id=":node-BE1_0" function="internal">
        <lane id=":node-BE1_0_0" index="0" speed="9.02" length="9.54" width="3.00" shape="1149.00,414.00 1146.57,414.39 1145.00,415.25 1143.43,416.11 1141.00,416.50"/>
        <lane id=":node-BE1_0_1" index="1" speed="9.02" length="9.54" width="3.00" shape="1149.00,414.00 1141.00,413.50"/>
        <lane id=":node-BE1_0_2" index="2" speed="9.02" length="9.54" width="3.00" shape="1149.00,414.00 1145.66,412.05 1145.00,407.75 1144.34,403.45 1141.00,401.50"/>
        <lane id=":node-BE1_0_3" index="3" speed="12.48" length="9.54" width="3.00" shape="1149.00,410.00 1146.30,411.02 1145.00,413.25 1143.70,415.48 1141.00,416.50"/>
        <lane id=":node-BE1_0_4" index="4" disallow="bus" speed="12.48" length="9.54" width="3.00" shape="1149.00,410.00 1141.00,410.50"/>
        <lane id=":node-BE1_0_5" index="5" disallow="bus" speed="12.48" length="9.54" width="3.00" shape="1149.00,406.00 1146.61,406.23 1145.00,406.75 1143.39,407.27 1141.00,407.50"/>
        <lane id=":node-BE1_0_6" index="6" disallow="bus" speed="12.48" length="9.54" width="3.00" shape="1149.00,406.00 1146.61,405.77 1145.00,405.25 1143.39,404.73 1141.00,404.50"/>
        <lane id=":node-BE1_0_7" index="7" speed="12.48" length="9.54" width="3.00" shape="1149.00,402.00 1141.00,401.50"/>
    </edge>
    <edge id=":node-BN1_0" function="internal">
        <lane id=":node-BN1_0_0" index="0" speed="12.88" length="10.25" shape="1031.61,507.79 1030.18,505.30 1027.80,504.37 1025.41,503.44 1023.98,500.95"/>
        <lane id=":node-BN1_0_1" index="1" speed="12.88" length="10.25" shape="1031.61,507.79 1030.71,505.44 1029.37,504.10 1028.04,502.77 1027.14,500.42"/>
        <lane id=":node-BN1_0_2" index="2" speed="12.88" length="10.25" shape="1031.61,507.79 1030.29,499.90"/>
        <lane id=":node-BN1_0_3" index="3" speed="12.88" length="10.25" shape="1034.77,507.26 1033.45,499.37"/>
        <lane id=":node-BN1_0_4" index="4" speed="12.88" length="10.25" shape="1037.92,506.73 1036.61,498.84"/>
        <lane id=":node-BN1_0_5" index="5" speed="9.73" length="10.25" shape="1041.08,506.21 1037.99,502.91 1032.53,503.58 1027.07,504.25 1023.98,500.95"/>
        <lane id=":node-BN1_0_6" index="6" allow="bus" speed="9.73" length="10.25" shape="1041.08,506.21 1039.76,498.32"/>
    </edge>
    <edge id=":node-BN2_0" function="internal">
        <lane id=":node-BN2_0_0" index="0" allow="bus" speed="3.65" length="4.67" shape="1096.58,819.74 1095.99,821.05 1095.26,821.58 1094.41,821.32 1093.42,820.26"/>
    </edge>
    <edge id=":node-BO0_0" function="internal">
        <lane id=":node-BO0_0_0" index="0" allow="bus" speed="9.73" length="22.26" width="4.00" shape="1012.63,432.86 1010.84,426.36 1007.95,421.72 1003.96,418.93 998.87,418.00"/>
    </edge>
    <edge id=":node-BO0_1" function="internal">
        <lane id=":node-BO0_1_0" index="0" disallow="bus" speed="11.24" length="25.36" width="4.00" shape="1012.63,432.86 1010.59,424.61 1007.62,418.72 1003.71,415.18 998.87,414.00"/>
    </edge>
    <edge id=":node-BO0_2" function="internal">
        <lane id=":node-BO0_2_0" index="0" speed="13.89" length="63.55" shape="1015.79,432.34 1013.96,411.33 1014.65,393.23 1016.03,378.82 1016.27,368.88"/>
        <lane id=":node-BO0_2_1" index="1" speed="13.89" length="63.55" shape="1018.95,431.81 1017.12,410.83 1017.81,392.77 1019.20,378.40 1019.45,368.48"/>
    </edge>
    <edge id=":node-BO0_4" function="internal">
        <lane id=":node-BO0_4_0" index="0" disallow="bus" speed="13.84" length="23.05" width="4.00" shape="1018.95,431.81 1021.85,421.12 1028.22,410.98"/>
    </edge>
    <edge id=":node-BO0_5" function="internal">
        <lane id=":node-BO0_5_0" index="0" disallow="bus" speed="13.71" length="17.98" width="4.00" shape="1022.10,431.28 1024.52,421.30 1028.57,414.75"/>
    </edge>
    <edge id=":node-BO0_6" function="internal">
        <lane id=":node-BO0_6_0" index="0" disallow="bus" speed="12.97" length="12.85" width="4.00" shape="1025.26,430.76 1027.18,421.48 1028.93,418.60"/>
    </edge>
    <edge id=":node-BO0_7" function="internal">
        <lane id=":node-BO0_7_0" index="0" allow="bus" speed="9.73" length="7.27" width="4.00" shape="1028.42,430.23 1029.34,423.03"/>
    </edge>
    <edge id=":node-BO0_28" function="internal">
        <lane id=":node-BO0_28_0" index="0" speed="13.84" length="31.50" width="4.00" shape="1028.22,410.98 1030.60,407.21 1041.52,395.15 1050.98,390.00"/>
    </edge>
    <edge id=":node-BO0_29" function="internal">
        <lane id=":node-BO0_29_0" index="0" speed="13.71" length="31.23" width="4.00" shape="1028.57,414.75 1032.17,408.94 1042.02,398.44 1050.98,394.00"/>
    </edge>
    <edge id=":node-BO0_30" function="internal">
        <lane id=":node-BO0_30_0" index="0" speed="12.97" length="31.04" width="4.00" shape="1028.93,418.60 1033.75,410.68 1042.51,401.73 1050.98,398.00"/>
    </edge>
    <edge id=":node-BO0_31" function="internal">
        <lane id=":node-BO0_31_0" index="0" speed="9.73" length="44.33" width="4.00" shape="1029.34,423.03 1029.84,419.16 1035.33,404.42 1043.00,391.52 1050.98,386.00"/>
    </edge>
    <edge id=":node-BO0_8" function="internal">
        <lane id=":node-BO0_8_0" index="0" disallow="bus" speed="8.48" length="18.19" shape="1050.98,416.50 1045.90,417.23 1042.56,419.41 1040.94,423.04 1041.04,428.13"/>
    </edge>
    <edge id=":node-BO0_9" function="internal">
        <lane id=":node-BO0_9_0" index="0" allow="bus" speed="9.02" length="27.27" shape="1050.98,416.50 1041.66,417.33 1035.32,419.80 1031.96,423.93 1031.57,429.71"/>
    </edge>
    <edge id=":node-BO0_10" function="internal">
        <lane id=":node-BO0_10_0" index="0" allow="bus" speed="9.02" length="52.18" width="4.00" shape="1050.98,413.50 998.87,418.00"/>
        <lane id=":node-BO0_10_1" index="1" disallow="bus" speed="10.75" length="52.18" width="4.00" shape="1050.98,410.50 998.87,410.00"/>
        <lane id=":node-BO0_10_2" index="2" disallow="bus" speed="10.75" length="52.18" width="4.00" shape="1050.98,407.50 998.87,406.00"/>
        <lane id=":node-BO0_10_3" index="3" disallow="bus" speed="10.75" length="52.18" width="4.00" shape="1050.98,404.50 998.87,402.00"/>
    </edge>
    <edge id=":node-BO0_14" function="internal">
        <lane id=":node-BO0_14_0" index="0" speed="13.19" length="12.81" shape="1050.98,401.50 1038.73,399.44 1038.40,399.22"/>
    </edge>
    <edge id=":node-BO0_32" function="internal">
        <lane id=":node-BO0_32_0" index="0" speed="13.19" length="37.83" shape="1038.40,399.22 1029.39,393.25 1022.97,382.93 1019.45,368.48"/>
    </edge>
    <edge id=":node-BO0_15" function="internal">
        <lane id=":node-BO0_15_0" index="0" allow="bus" speed="9.73" length="32.10" width="4.00" shape="1028.97,367.29 1031.23,375.48 1035.64,381.32 1042.23,384.83 1050.98,386.00"/>
    </edge>
    <edge id=":node-BO0_16" function="internal">
        <lane id=":node-BO0_16_0" index="0" disallow="bus" speed="12.93" length="35.09" width="4.00" shape="1028.97,367.29 1031.41,377.23 1035.89,384.32 1042.41,388.58 1050.98,390.00"/>
    </edge>
    <edge id=":node-BO0_17" function="internal">
        <lane id=":node-BO0_17_0" index="0" disallow="bus" speed="12.88" length="62.22" shape="1025.80,367.69 1037.89,428.65"/>
        <lane id=":node-BO0_17_1" index="1" allow="bus" speed="9.73" length="62.22" shape="1025.80,367.69 1031.57,429.71"/>
    </edge>
    <edge id=":node-BO0_19" function="internal">
        <lane id=":node-BO0_19_0" index="0" allow="bus" speed="9.73" length="12.93" width="4.00" shape="1022.62,368.08 1020.84,380.07 1020.57,380.83"/>
    </edge>
    <edge id=":node-BO0_20" function="internal">
        <lane id=":node-BO0_20_0" index="0" disallow="bus" speed="11.46" length="9.65" width="4.00" shape="1022.62,368.08 1020.84,377.57"/>
    </edge>
    <edge id=":node-BO0_33" function="internal">
        <lane id=":node-BO0_33_0" index="0" speed="9.73" length="44.07" width="4.00" shape="1020.57,380.83 1014.96,396.76 1006.97,411.60 998.87,418.00"/>
    </edge>
    <edge id=":node-BO0_34" function="internal">
        <lane id=":node-BO0_34_0" index="0" speed="11.46" length="33.92" width="4.00" shape="1020.84,377.57 1014.96,388.76 1006.97,398.10 998.87,402.00"/>
    </edge>
    <edge id=":node-BO0_21" function="internal">
        <lane id=":node-BO0_21_0" index="0" speed="9.90" length="24.29" shape="998.87,380.75 1007.04,380.01 1012.66,377.78 1015.74,374.07 1016.27,368.88"/>
    </edge>
    <edge id=":node-BO0_22" function="internal">
        <lane id=":node-BO0_22_0" index="0" allow="bus" speed="7.68" length="52.17" width="4.00" shape="998.87,384.25 1050.98,386.00"/>
        <lane id=":node-BO0_22_1" index="1" disallow="bus" speed="11.79" length="52.17" width="4.00" shape="998.87,387.75 1050.98,390.00"/>
        <lane id=":node-BO0_22_2" index="2" disallow="bus" speed="11.79" length="52.17" width="4.00" shape="998.87,391.25 1050.98,394.00"/>
        <lane id=":node-BO0_22_3" index="3" disallow="bus" speed="11.79" length="52.17" width="4.00" shape="998.87,394.75 1050.98,398.00"/>
    </edge>
    <edge id=":node-BO0_26" function="internal">
        <lane id=":node-BO0_26_0" index="0" disallow="bus" speed="10.83" length="14.97" shape="998.87,398.25 1012.62,400.18 1013.57,400.70"/>
    </edge>
    <edge id=":node-BO0_27" function="internal">
        <lane id=":node-BO0_27_0" index="0" allow="bus" speed="7.68" length="13.27" shape="998.87,398.25 1011.21,400.22 1011.87,400.62"/>
    </edge>
    <edge id=":node-BO0_35" function="internal">
        <lane id=":node-BO0_35_0" index="0" speed="10.83" length="37.28" shape="1013.57,400.70 1023.19,405.98 1030.56,415.65 1034.73,429.18"/>
    </edge>
    <edge id=":node-BO0_36" function="internal">
        <lane id=":node-BO0_36_0" index="0" speed="7.68" length="36.74" shape="1011.87,400.62 1020.78,406.11 1027.56,415.94 1031.57,429.71"/>
    </edge>
    <edge id=":node-BS1_0" function="internal">
        <lane id=":node-BS1_0_0" index="0" speed="13.89" length="8.27" shape="1016.27,291.44 1017.07,293.82 1018.35,295.21 1019.63,296.60 1020.43,298.98"/>
        <lane id=":node-BS1_0_1" index="1" speed="13.89" length="8.27" shape="1016.27,291.44 1017.26,299.37"/>
        <lane id=":node-BS1_0_2" index="2" speed="13.89" length="8.27" shape="1013.09,291.83 1014.08,299.77"/>
    </edge>
    <edge id=":node-BS2_0" function="internal">
        <lane id=":node-BS2_0_0" index="0" speed="3.65" length="4.67" shape="973.41,0.20 974.06,-1.09 974.80,-1.59 975.64,-1.29 976.59,-0.20"/>
    </edge>
    <edge id=":node-BW1_0" function="internal">
        <lane id=":node-BW1_0_0" index="0" speed="7.68" length="9.93" width="3.50" shape="901.00,382.00 903.39,381.80 905.00,381.38 906.61,380.95 909.00,380.75"/>
        <lane id=":node-BW1_0_1" index="1" speed="7.68" length="9.93" width="3.50" shape="901.00,382.00 903.42,382.35 905.00,383.13 906.58,383.90 909.00,384.25"/>
        <lane id=":node-BW1_0_2" index="2" speed="7.68" length="9.93" width="3.50" shape="901.00,382.00 904.80,384.54 905.00,390.13 905.20,395.71 909.00,398.25"/>
        <lane id=":node-BW1_0_3" index="3" speed="9.79" length="9.93" width="3.50" shape="901.00,386.00 903.60,385.18 905.00,383.38 906.40,381.57 909.00,380.75"/>
        <lane id=":node-BW1_0_4" index="4" disallow="bus" speed="9.79" length="9.93" width="3.50" shape="901.00,390.00 903.42,389.65 905.00,388.88 906.58,388.10 909.00,387.75"/>
        <lane id=":node-BW1_0_5" index="5" disallow="bus" speed="9.79" length="9.93" width="3.50" shape="901.00,390.00 903.39,390.20 905.00,390.63 906.61,391.05 909.00,391.25"/>
        <lane id=":node-BW1_0_6" index="6" disallow="bus" speed="9.79" length="9.93" width="3.50" shape="901.00,394.00 903.38,394.12 905.00,394.38 906.62,394.63 909.00,394.75"/>
        <lane id=":node-BW1_0_7" index="7" speed="9.79" length="9.93" width="3.50" shape="901.00,398.00 909.00,398.25"/>
    </edge>
    <edge id=":node-CE1_0" function="internal">
        <lane id=":node-CE1_0_0" index="0" speed="9.77" length="9.80" width="3.50" shape="1869.00,416.88 1866.58,417.25 1865.00,418.06 1863.42,418.88 1861.00,419.25"/>
        <lane id=":node-CE1_0_1" index="1" speed="9.77" length="9.80" width="3.50" shape="1869.00,416.88 1866.61,416.70 1865.00,416.31 1863.39,415.93 1861.00,415.75"/>
        <lane id=":node-CE1_0_2" index="2" speed="9.77" length="9.80" width="3.50" shape="1869.00,416.88 1865.34,414.51 1865.00,409.31 1864.66,404.11 1861.00,401.75"/>
        <lane id=":node-CE1_0_3" index="3" speed="13.98" length="9.80" width="3.50" shape="1869.00,413.13 1866.33,414.08 1865.00,416.19 1863.67,418.29 1861.00,419.25"/>
        <lane id=":node-CE1_0_4" index="4" disallow="bus" speed="13.98" length="9.80" width="3.50" shape="1869.00,413.13 1866.62,412.99 1865.00,412.69 1863.38,412.39 1861.00,412.25"/>
        <lane id=":node-CE1_0_5" index="5" disallow="bus" speed="13.98" length="9.80" width="3.50" shape="1869.00,409.38 1861.00,408.75"/>
        <lane id=":node-CE1_0_6" index="6" disallow="bus" speed="13.98" length="9.80" width="3.50" shape="1869.00,405.63 1861.00,405.25"/>
        <lane id=":node-CE1_0_7" index="7" speed="13.98" length="9.80" width="3.50" shape="1869.00,401.88 1861.00,401.75"/>
    </edge>
    <edge id=":node-CN1_0" function="internal">
        <lane id=":node-CN1_0_0" index="0" speed="13.89" length="9.22" shape="1743.40,504.00 1742.40,501.36 1740.20,500.05 1738.00,498.71 1737.00,496.00"/>
        <lane id=":node-CN1_0_1" index="1" speed="13.89" length="9.22" shape="1743.40,504.00 1742.90,501.54 1741.80,500.00 1740.70,498.46 1740.20,496.00"/>
        <lane id=":node-CN1_0_2" index="2" speed="13.89" length="9.22" shape="1743.40,504.00 1743.40,496.00"/>
    </edge>
    <edge id=":node-CN2_0" function="internal">
        <lane id=":node-CN2_0_0" index="0" speed="3.65" length="4.67" shape="1746.60,800.00 1745.80,801.20 1745.00,801.60 1744.20,801.20 1743.40,800.00"/>
    </edge>
    <edge id=":node-CO0_0" function="internal">
        <lane id=":node-CO0_0_0" index="0" allow="bus" speed="9.73" length="23.23" width="4.00" shape="1737.00,431.00 1736.28,423.56 1734.10,418.25 1730.47,415.06 1725.40,414.00"/>
    </edge>
    <edge id=":node-CO0_1" function="internal">
        <lane id=":node-CO0_1_0" index="0" disallow="bus" speed="10.80" length="26.72" width="4.00" shape="1737.00,431.00 1736.28,421.81 1734.10,415.25 1730.47,411.31 1725.40,410.00"/>
    </edge>
    <edge id=":node-CO0_2" function="internal">
        <lane id=":node-CO0_2_0" index="0" speed="13.89" length="59.04" shape="1740.20,431.00 1743.40,372.00"/>
        <lane id=":node-CO0_2_1" index="1" speed="13.89" length="59.04" shape="1743.40,431.00 1743.40,372.00"/>
    </edge>
    <edge id=":node-CO0_4" function="internal">
        <lane id=":node-CO0_4_0" index="0" allow="bus" speed="9.73" length="12.56" width="4.00" shape="1743.40,431.00 1745.31,419.75 1745.67,418.65"/>
    </edge>
    <edge id=":node-CO0_5" function="internal">
        <lane id=":node-CO0_5_0" index="0" disallow="bus" speed="13.25" length="10.12" width="4.00" shape="1743.40,431.00 1745.31,421.63 1745.53,421.13"/>
    </edge>
    <edge id=":node-CO0_23" function="internal">
        <lane id=":node-CO0_23_0" index="0" speed="9.73" length="38.83" width="4.00" shape="1745.67,418.65 1750.25,404.75 1757.07,391.63 1764.60,386.00"/>
    </edge>
    <edge id=":node-CO0_24" function="internal">
        <lane id=":node-CO0_24_0" index="0" speed="13.25" length="31.10" width="4.00" shape="1745.53,421.13 1750.25,410.75 1757.07,401.75 1764.60,398.00"/>
    </edge>
    <edge id=":node-CO0_6" function="internal">
        <lane id=":node-CO0_6_0" index="0" speed="10.32" length="24.20" shape="1764.60,419.25 1756.72,419.98 1751.10,422.19 1747.72,425.86 1746.60,431.00"/>
    </edge>
    <edge id=":node-CO0_7" function="internal">
        <lane id=":node-CO0_7_0" index="0" allow="bus" speed="9.77" length="39.28" width="4.00" shape="1764.60,415.75 1725.40,414.00"/>
        <lane id=":node-CO0_7_1" index="1" disallow="bus" speed="13.23" length="39.28" width="4.00" shape="1764.60,412.25 1725.40,410.00"/>
        <lane id=":node-CO0_7_2" index="2" disallow="bus" speed="13.23" length="39.28" width="4.00" shape="1764.60,408.75 1725.40,406.00"/>
        <lane id=":node-CO0_7_3" index="3" disallow="bus" speed="13.23" length="39.28" width="4.00" shape="1764.60,405.25 1725.40,402.00"/>
    </edge>
    <edge id=":node-CO0_11" function="internal">
        <lane id=":node-CO0_11_0" index="0" speed="12.93" length="5.18" shape="1764.60,401.75 1759.84,399.70"/>
    </edge>
    <edge id=":node-CO0_25" function="internal">
        <lane id=":node-CO0_25_0" index="0" speed="12.93" length="33.45" shape="1759.84,399.70 1757.07,398.51 1750.25,390.63 1745.31,380.87 1743.40,372.00"/>
    </edge>
    <edge id=":node-CO0_12" function="internal">
        <lane id=":node-CO0_12_0" index="0" allow="bus" speed="9.55" length="20.68" width="4.00" shape="1753.00,372.00 1753.72,378.13 1755.90,382.50 1759.53,385.13 1764.60,386.00"/>
    </edge>
    <edge id=":node-CO0_13" function="internal">
        <lane id=":node-CO0_13_0" index="0" disallow="bus" speed="10.28" length="24.09" width="4.00" shape="1753.00,372.00 1753.72,379.88 1755.90,385.50 1759.53,388.88 1764.60,390.00"/>
    </edge>
    <edge id=":node-CO0_14" function="internal">
        <lane id=":node-CO0_14_0" index="0" speed="13.89" length="59.09" shape="1749.80,372.00 1746.60,431.00"/>
    </edge>
    <edge id=":node-CO0_15" function="internal">
        <lane id=":node-CO0_15_0" index="0" allow="bus" speed="9.73" length="9.19" width="4.00" shape="1746.60,372.00 1745.00,381.05"/>
    </edge>
    <edge id=":node-CO0_16" function="internal">
        <lane id=":node-CO0_16_0" index="0" disallow="bus" speed="12.94" length="7.64" width="4.00" shape="1746.60,372.00 1745.00,379.48"/>
    </edge>
    <edge id=":node-CO0_26" function="internal">
        <lane id=":node-CO0_26_0" index="0" speed="9.73" length="39.59" width="4.00" shape="1745.00,381.05 1744.69,382.78 1739.75,396.75 1732.93,408.84 1725.40,414.00"/>
    </edge>
    <edge id=":node-CO0_27" function="internal">
        <lane id=":node-CO0_27_0" index="0" speed="12.94" length="31.18" width="4.00" shape="1745.00,379.48 1744.69,380.91 1739.75,390.75 1732.93,398.72 1725.40,402.00"/>
    </edge>
    <edge id=":node-CO0_17" function="internal">
        <lane id=":node-CO0_17_0" index="0" speed="10.25" length="24.02" shape="1725.40,383.50 1733.28,382.78 1738.90,380.63 1742.28,377.03 1743.40,372.00"/>
    </edge>
    <edge id=":node-CO0_18" function="internal">
        <lane id=":node-CO0_18_0" index="0" allow="bus" speed="9.68" length="39.23" width="4.00" shape="1725.40,386.50 1764.60,386.00"/>
        <lane id=":node-CO0_18_1" index="1" disallow="bus" speed="13.20" length="39.23" width="4.00" shape="1725.40,389.50 1764.60,390.00"/>
        <lane id=":node-CO0_18_2" index="2" disallow="bus" speed="13.20" length="39.23" width="4.00" shape="1725.40,392.50 1764.60,394.00"/>
        <lane id=":node-CO0_18_3" index="3" disallow="bus" speed="13.20" length="39.23" width="4.00" shape="1725.40,395.50 1764.60,398.00"/>
    </edge>
    <edge id=":node-CO0_22" function="internal">
        <lane id=":node-CO0_22_0" index="0" speed="13.25" length="4.11" shape="1725.40,398.50 1729.09,400.30"/>
    </edge>
    <edge id=":node-CO0_28" function="internal">
        <lane id=":node-CO0_28_0" index="0" speed="13.25" length="36.71" shape="1729.09,400.30 1732.93,402.17 1739.75,411.00 1744.69,421.70 1746.60,431.00"/>
    </edge>
    <edge id=":node-CS1_0" function="internal">
        <lane id=":node-CS1_0_0" index="0" speed="13.89" length="9.22" shape="1746.60,276.00 1747.60,278.64 1749.80,279.95 1752.00,281.29 1753.00,284.00"/>
        <lane id=":node-CS1_0_1" index="1" speed="13.89" length="9.22" shape="1746.60,276.00 1747.10,278.46 1748.20,280.00 1749.30,281.54 1749.80,284.00"/>
        <lane id=":node-CS1_0_2" index="2" speed="13.89" length="9.22" shape="1746.60,276.00 1746.60,284.00"/>
    </edge>