<?xml version="1.0" encoding="UTF-8"?>
<routes>
    <route id="AW-LE" edges="edge-AW2-AW1 edge-AW1-AO0 edge-AO0-AN2"/>
    <route id="AW-RI" edges="edge-AW2-AW1 edge-AW1-AO0 edge-AO0-AS2"/>
    <route id="AW-B-LE" edges="edge-AW2-AW1 edge-AW1-AO0 edge-AO0-BW1 edge-BW1-BO0 edge-BO0-BN2"/>
	<route id="AW-B-RI" edges="edge-AW2-AW1 edge-AW1-AO0 edge-AO0-BW1 edge-BW1-BO0 edge-BO0-BS2"/>
	<route id="AW-B-C-LE" edges="edge-AW2-AW1 edge-AW1-AO0 edge-AO0-BW1 edge-BW1-BO0 edge-BO0-CW1 edge-CW1-CO0 edge-CO0-CN2"/>
	<route id="AW-B-C-RI" edges="edge-AW2-AW1 edge-AW1-AO0 edge-AO0-BW1 edge-BW1-BO0 edge-BO0-CW1 edge-CW1-CO0 edge-CO0-CS2"/>
	<route id="AW-B-C-D-RI" edges="edge-AW2-AW1 edge-AW1-AO0 edge-AO0-BW1 edge-BW1-BO0 edge-BO0-CW1 edge-CW1-CO0 edge-CO0-DW1 edge-DW1-DO0 edge-DO0-DS2"/>
	<route id="AW-B-C-D-E-LE" edges="edge-AW2-AW1 edge-AW1-AO0 edge-AO0-BW1 edge-BW1-BO0 edge-BO0-CW1 edge-CW1-CO0 edge-CO0-DW1 edge-DW1-DO0 edge-DO0-EW1 edge-EW1-EO0 edge-EO0-EN2"/>
	<route id="AW-B-C-D-E-ST" edges="edge-AW2-AW1 edge-AW1-AO0 edge-AO0-BW1 edge-BW1-BO0 edge-BO0-CW1 edge-CW1-CO0 edge-CO0-DW1 edge-DW1-DO0 edge-DO0-EW1 edge-EW1-EO0 edge-EO0-EE2"/> 	
	<route id="AW-B-C-D-E-RI" edges="edge-AW2-AW1 edge-AW1-AO0 edge-AO0-BW1 edge-BW1-BO0 edge-BO0-CW1 edge-CW1-CO0 edge-CO0-DW1 edge-DW1-DO0 edge-DO0-EW1 edge-EW1-EO0 edge-EO0-ES2"/>  
	
	<route id="AS-LE" edges="edge-AS2-AS1 edge-AS1-AO0 edge-AO0-AW2"/>
	<route id="AS-ST" edges="edge-AS2-AS1 edge-AS1-AO0 edge-AO0-AN2"/>
	<route id="AS-B-LE" edges="edge-AS2-AS1 edge-AS1-AO0 edge-AO0-BW1 edge-BW1-BO0 edge-BO0-BN2"/>  
	<route id="AS-B-RI" edges="edge-AS2-AS1 edge-AS1-AO0 edge-AO0-BW1 edge-BW1-BO0 edge-BO0-BS2"/>     
	<route id="AS-B-C-LE" edges="edge-AS2-AS1 edge-AS1-AO0 edge-AO0-BW1 edge-BW1-BO0 edge-BO0-CW1 edge-CW1-CO0 edge-CO0-CN2"/>     
	<route id="AS-B-C-RI" edges="edge-AS2-AS1 edge-AS1-AO0 edge-AO0-BW1 edge-BW1-BO0 edge-BO0-CW1 edge-CW1-CO0 edge-CO0-CS2"/>     
	<route id="AS-B-C-D-RI" edges="edge-AS2-AS1 edge-AS1-AO0 edge-AO0-BW1 edge-BW1-BO0 edge-BO0-CW1 edge-CW1-CO0 edge-CO0-DW1 edge-DW1-DO0 edge-DO0-DS2"/>  
	<route id="AS-B-C-D-E-LE" edges="edge-AS2-AS1 edge-AS1-AO0 edge-AO0-BW1 edge-BW1-BO0 edge-BO0-CW1 edge-CW1-CO0 edge-CO0-DW1 edge-DW1-DO0 edge-DO0-EW1 edge-EW1-EO0 edge-EO0-EN2"/> 
	<route id="AS-B-C-D-E-ST" edges="edge-AS2-AS1 edge-AS1-AO0 edge-AO0-BW1 edge-BW1-BO0 edge-BO0-CW1 edge-CW1-CO0 edge-CO0-DW1 edge-DW1-DO0 edge-DO0-EW1 edge-EW1-EO0 edge-EO0-EE2"/> 		
	<route id="AS-B-C-D-E-RI" edges="edge-AS2-AS1 edge-AS1-AO0 edge-AO0-BW1 edge-BW1-BO0 edge-BO0-CW1 edge-CW1-CO0 edge-CO0-DW1 edge-DW1-DO0 edge-DO0-EW1 edge-EW1-EO0 edge-EO0-ES2"/>  
	
	<route id="AN-RI" edges="edge-AN2-AN1 edge-AN1-AO0 edge-AO0-AW2"/>	
	<route id="AN-ST" edges="edge-AN2-AN1 edge-AN1-AO0 edge-AO0-AS2"/>
	<route id="AN-B-LE" edges="edge-AN2-AN1 edge-AN1-AO0 edge-AO0-BW1 edge-BW1-BO0 edge-BO0-BN2"/>  
	<route id="AN-B-RI" edges="edge-AN2-AN1 edge-AN1-AO0 edge-AO0-BW1 edge-BW1-BO0 edge-BO0-BS2"/>     
	<route id="AN-B-C-LE" edges="edge-AN2-AN1 edge-AN1-AO0 edge-AO0-BW1 edge-BW1-BO0 edge-BO0-CW1 edge-CW1-CO0 edge-CO0-CN2"/>     
	<route id="AN-B-C-RI" edges="edge-AN2-AN1 edge-AN1-AO0 edge-AO0-BW1 edge-BW1-BO0 edge-BO0-CW1 edge-CW1-CO0 edge-CO0-CS2"/>     
	<route id="AN-B-C-D-RI" edges="edge-AN2-AN1 edge-AN1-AO0 edge-AO0-BW1 edge-BW1-BO0 edge-BO0-CW1 edge-CW1-CO0 edge-CO0-DW1 edge-DW1-DO0 edge-DO0-DS2"/>  
	<route id="AN-B-C-D-E-LE" edges="edge-AN2-AN1 edge-AN1-AO0 edge-AO0-BW1 edge-BW1-BO0 edge-BO0-CW1 edge-CW1-CO0 edge-CO0-DW1 edge-DW1-DO0 edge-DO0-EW1 edge-EW1-EO0 edge-EO0-EN2"/>  
	<route id="AN-B-C-D-E-ST" edges="edge-AN2-AN1 edge-AN1-AO0 edge-AO0-BW1 edge-BW1-BO0 edge-BO0-CW1 edge-CW1-CO0 edge-CO0-DW1 edge-DW1-DO0 edge-DO0-EW1 edge-EW1-EO0 edge-EO0-EE2"/>
	<route id="AN-B-C-D-E-RI" edges="edge-AN2-AN1 edge-AN1-AO0 edge-AO0-BW1 edge-BW1-BO0 edge-BO0-CW1 edge-CW1-CO0 edge-CO0-DW1 edge-DW1-DO0 edge-DO0-EW1 edge-EW1-EO0 edge-EO0-ES2"/>  

	<route id="BS-A-LE" edges="edge-BS2-BS1 edge-BS1-BO0 edge-BO0-AE1 edge-AE1-AO0 edge-AO0-AS2"/>
	<route id="BS-A-ST" edges="edge-BS2-BS1 edge-BS1-BO0 edge-BO0-AE1 edge-AE1-AO0 edge-AO0-AW2"/>
	<route id="BS-A-RI" edges="edge-BS2-BS1 edge-BS1-BO0 edge-BO0-AE1 edge-AE1-AO0 edge-AO0-AN2"/>
	<route id="BS-ST" edges="edge-BS2-BS1 edge-BS1-BO0 edge-BO0-BN2"/>
	<route id="BS-C-LE" edges="edge-BS2-BS1 edge-BS1-BO0 edge-BO0-CW1 edge-CW1-CO0 edge-CO0-CN2"/>
	<route id="BS-C-RI" edges="edge-BS2-BS1 edge-BS1-BO0 edge-BO0-CW1 edge-CW1-CO0 edge-CO0-CS2"/>
	<route id="BS-C-D-RI" edges="edge-BS2-BS1 edge-BS1-BO0 edge-BO0-CW1 edge-CW1-CO0 edge-CO0-DW1 edge-DW1-DO0 edge-DO0-DS2"/>
	<route id="BS-C-D-E-LE" edges="edge-BS2-BS1 edge-BS1-BO0 edge-BO0-CW1 edge-CW1-CO0 edge-CO0-DW1 edge-DW1-DO0 edge-DO0-EW1 edge-EW1-EO0 edge-EO0-EN2"/>
	<route id="BS-C-D-E-ST" edges="edge-BS2-BS1 edge-BS1-BO0 edge-BO0-CW1 edge-CW1-CO0 edge-CO0-DW1 edge-DW1-DO0 edge-DO0-EW1 edge-EW1-EO0 edge-EO0-EE2"/>
	<route id="BS-C-D-E-RI" edges="edge-BS2-BS1 edge-BS1-BO0 edge-BO0-CW1 edge-CW1-CO0 edge-CO0-DW1 edge-DW1-DO0 edge-DO0-EW1 edge-EW1-EO0 edge-EO0-ES2"/>
	
	<route id="BN-A-LE" edges="edge-BN2-BN1 edge-BN1-BO0 edge-BO0-AE1 edge-AE1-AO0 edge-AO0-AS2"/>
	<route id="BN-A-ST" edges="edge-BN2-BN1 edge-BN1-BO0 edge-BO0-AE1 edge-AE1-AO0 edge-AO0-AW2"/>
	<route id="BN-A-RI" edges="edge-BN2-BN1 edge-BN1-BO0 edge-BO0-AE1 edge-AE1-AO0 edge-AO0-AN2"/>
	<route id="BN-ST" edges="edge-BN2-BN1 edge-BN1-BO0 edge-BO0-BS2"/>
	<route id="BN-C-LE" edges="edge-BN2-BN1 edge-BN1-BO0 edge-BO0-CW1 edge-CW1-CO0 edge-CO0-CN2"/>
	<route id="BN-C-RI" edges="edge-BN2-BN1 edge-BN1-BO0 edge-BO0-CW1 edge-CW1-CO0 edge-CO0-CS2"/>
	<route id="BN-C-D-RI" edges="edge-BN2-BN1 edge-BN1-BO0 edge-BO0-CW1 edge-CW1-CO0 edge-CO0-DW1 edge-DW1-DO0 edge-DO0-DS2"/>
	<route id="BN-C-D-E-LE" edges="edge-BN2-BN1 edge-BN1-BO0 edge-BO0-CW1 edge-CW1-CO0 edge-CO0-DW1 edge-DW1-DO0 edge-DO0-EW1 edge-EW1-EO0 edge-EO0-EN2"/>
	<route id="BN-C-D-E-ST" edges="edge-BN2-BN1 edge-BN1-BO0 edge-BO0-CW1 edge-CW1-CO0 edge-CO0-DW1 edge-DW1-DO0 edge-DO0-EW1 edge-EW1-EO0 edge-EO0-EE2"/>
	<route id="BN-C-D-E-RI" edges="edge-BN2-BN1 edge-BN1-BO0 edge-BO0-CW1 edge-CW1-CO0 edge-CO0-DW1 edge-DW1-DO0 edge-DO0-EW1 edge-EW1-EO0 edge-EO0-ES2"/>

	<route id="CS-B-A-LE" edges="edge-CS2-CS1 edge-CS1-CO0 edge-CO0-BE1 edge-BE1-BO0 edge-BO0-AE1 edge-AE1-AO0 edge-AO0-AS2"/>
	<route id="CS-B-A-ST" edges="edge-CS2-CS1 edge-CS1-CO0 edge-CO0-BE1 edge-BE1-BO0 edge-BO0-AE1 edge-AE1-AO0 edge-AO0-AW2"/>
	<route id="CS-B-A-RI" edges="edge-CS2-CS1 edge-CS1-CO0 edge-CO0-BE1 edge-BE1-BO0 edge-BO0-AE1 edge-AE1-AO0 edge-AO0-AN2"/>
	<route id="CS-B-LE"	edges="edge-CS2-CS1 edge-CS1-CO0 edge-CO0-BE1 edge-BE1-BO0 edge-BO0-BS2"/>
	<route id="CS-B-RI" edges="edge-CS2-CS1 edge-CS1-CO0 edge-CO0-BE1 edge-BE1-BO0 edge-BO0-BN2"/>
	<route id="CS-ST" edges="edge-CS2-CS1 edge-CS1-CO0 edge-CO0-CN2"/>
	<route id="CS-D-RI" edges="edge-CS2-CS1 edge-CS1-CO0 edge-CO0-DW1 edge-DW1-DO0 edge-DO0-DS2"/>
	<route id="CS-D-E-LE" edges="edge-CS2-CS1 edge-CS1-CO0 edge-CO0-DW1 edge-DW1-DO0 edge-DO0-EW1 edge-EW1-EO0 edge-EO0-EN2"/>
	<route id="CS-D-E-ST" edges="edge-CS2-CS1 edge-CS1-CO0 edge-CO0-DW1 edge-DW1-DO0 edge-DO0-EW1 edge-EW1-EO0 edge-EO0-EE2"/>
	<route id="CS-D-E-RI" edges="edge-CS2-CS1 edge-CS1-CO0 edge-CO0-DW1 edge-DW1-DO0 edge-DO0-EW1 edge-EW1-EO0 edge-EO0-ES2"/>	
	
	<route id="CN-B-A-LE" edges="edge-CN2-CN1 edge-CN1-CO0 edge-CO0-BE1 edge-BE1-BO0 edge-BO0-AE1 edge-AE1-AO0 edge-AO0-AS2"/>
	<route id="CN-B-A-ST" edges="edge-CN2-CN1 edge-CN1-CO0 edge-CO0-BE1 edge-BE1-BO0 edge-BO0-AE1 edge-AE1-AO0 edge-AO0-AW2"/>
	<route id="CN-B-A-RI" edges="edge-CN2-CN1 edge-CN1-CO0 edge-CO0-BE1 edge-BE1-BO0 edge-BO0-AE1 edge-AE1-AO0 edge-AO0-AN2"/>
	<route id="CN-B-LE"	edges="edge-CN2-CN1 edge-CN1-CO0 edge-CO0-BE1 edge-BE1-BO0 edge-BO0-BS2"/>
	<route id="CN-B-RI" edges="edge-CN2-CN1 edge-CN1-CO0 edge-CO0-BE1 edge-BE1-BO0 edge-BO0-BN2"/>
	<route id="CN-ST" edges="edge-CN2-CN1 edge-CN1-CO0 edge-CO0-CS2"/>
	<route id="CN-D-RI" edges="edge-CN2-CN1 edge-CN1-CO0 edge-CO0-DW1 edge-DW1-DO0 edge-DO0-DS2"/>
	<route id="CN-D-E-LE" edges="edge-CS2-CS1 edge-CS1-CO0 edge-CO0-DW1 edge-DW1-DO0 edge-DO0-EW1 edge-EW1-EO0 edge-EO0-EN2"/>
	<route id="CN-D-E-ST" edges="edge-CS2-CS1 edge-CS1-CO0 edge-CO0-DW1 edge-DW1-DO0 edge-DO0-EW1 edge-EW1-EO0 edge-EO0-EE2"/>
	<route id="CN-D-E-RI" edges="edge-CS2-CS1 edge-CS1-CO0 edge-CO0-DW1 edge-DW1-DO0 edge-DO0-EW1 edge-EW1-EO0 edge-EO0-ES2"/>

	<route id="DS-C-B-A-LE" edges="edge-DS2-DS1 edge-DS1-DO0 edge-DO0-CE1 edge-CE1-CO0 edge-CO0-BE1 edge-BE1-BO0 edge-BO0-AE1 edge-AE1-AO0 edge-AO0-AS2"/>
	<route id="DS-C-B-A-ST" edges="edge-DS2-DS1 edge-DS1-DO0 edge-DO0-CE1 edge-CE1-CO0 edge-CO0-BE1 edge-BE1-BO0 edge-BO0-AE1 edge-AE1-AO0 edge-AO0-AW2"/>
	<route id="DS-C-B-A-RI" edges="edge-DS2-DS1 edge-DS1-DO0 edge-DO0-CE1 edge-CE1-CO0 edge-CO0-BE1 edge-BE1-BO0 edge-BO0-AE1 edge-AE1-AO0 edge-AO0-AN2"/>
	<route id="DS-C-B-LE" edges="edge-DS2-DS1 edge-DS1-DO0 edge-DO0-CE1 edge-CE1-CO0 edge-CO0-BE1 edge-BE1-BO0 edge-BO0-BS2"/>
	<route id="DS-C-B-RI" edges="edge-DS2-DS1 edge-DS1-DO0 edge-DO0-CE1 edge-CE1-CO0 edge-CO0-BE1 edge-BE1-BO0 edge-BO0-BN2"/>
	<route id="DS-C-LE" edges="edge-DS2-DS1 edge-DS1-DO0 edge-DO0-CE1 edge-CE1-CO0 edge-CO0-CS2"/>
	<route id="DS-C-RI" edges="edge-DS2-DS1 edge-DS1-DO0 edge-DO0-CE1 edge-CE1-CO0 edge-CO0-CN2"/>
	<route id="DS-ST" edges="edge-DS2-DS1 edge-DS1-DO0 edge-DO0-DN1"/>
	<route id="DS-E-LE" edges="edge-DS2-DS1 edge-DS1-DO0 edge-DO0-EW1 edge-EW1-EO0 edge-EO0-EN2"/>
	<route id="DS-E-ST" edges="edge-DS2-DS1 edge-DS1-DO0 edge-DO0-EW1 edge-EW1-EO0 edge-EO0-EE2"/>
	<route id="DS-E-RI" edges="edge-DS2-DS1 edge-DS1-DO0 edge-DO0-EW1 edge-EW1-EO0 edge-EO0-ES2"/>
	
	<route id="DN-C-B-A-LE" edges="edge-DN1-DO0 edge-DO0-CE1 edge-CE1-CO0 edge-CO0-BE1 edge-BE1-BO0 edge-BO0-AE1 edge-AE1-AO0 edge-AO0-AS2"/>
	<route id="DN-C-B-A-ST" edges="edge-DN1-DO0 edge-DO0-CE1 edge-CE1-CO0 edge-CO0-BE1 edge-BE1-BO0 edge-BO0-AE1 edge-AE1-AO0 edge-AO0-AW2"/>
	<route id="DN-C-B-A-RI" edges="edge-DN1-DO0 edge-DO0-CE1 edge-CE1-CO0 edge-CO0-BE1 edge-BE1-BO0 edge-BO0-AE1 edge-AE1-AO0 edge-AO0-AN2"/>
	<route id="DN-C-B-LE" edges="edge-DN1-DO0 edge-DO0-CE1 edge-CE1-CO0 edge-CO0-BE1 edge-BE1-BO0 edge-BO0-BS2"/>
	<route id="DN-C-B-RI" edges="edge-DN1-DO0 edge-DO0-CE1 edge-CE1-CO0 edge-CO0-BE1 edge-BE1-BO0 edge-BO0-BN2"/>
	<route id="DN-C-LE" edges="edge-DN1-DO0 edge-DO0-CE1 edge-CE1-CO0 edge-CO0-CS2"/>
	<route id="DN-C-RI" edges="edge-DN1-DO0 edge-DO0-CE1 edge-CE1-CO0 edge-CO0-CN2"/>
	<route id="DN-ST" edges="edge-DN1-DO0 edge-DO0-DS2"/>
	<route id="DN-E-LE" edges="edge-DN1-DO0 edge-DO0-EW1 edge-EW1-EO0 edge-EO0-EN2"/>
	<route id="DN-E-ST" edges="edge-DN1-DO0 edge-DO0-EW1 edge-EW1-EO0 edge-EO0-EE2"/>
	<route id="DN-E-RI" edges="edge-DN1-DO0 edge-DO0-EW1 edge-EW1-EO0 edge-EO0-ES2"/>
		
	<route id="EE-D-C-B-A-LE" edges="edge-EE2-EE1 edge-EE1-EO0 edge-EO0-DE1 edge-DE1-DO0 edge-DO0-CE1 edge-CE1-CO0 edge-CO0-BE1 edge-BE1-BO0 edge-BO0-AE1 edge-AE1-AO0 edge-AO0-AS2"/>
	<route id="EE-D-C-B-A-ST" edges="edge-EE2-EE1 edge-EE1-EO0 edge-EO0-DE1 edge-DE1-DO0 edge-DO0-CE1 edge-CE1-CO0 edge-CO0-BE1 edge-BE1-BO0 edge-BO0-AE1 edge-AE1-AO0 edge-AO0-AW2"/>
	<route id="EE-D-C-B-A-RI" edges="edge-EE2-EE1 edge-EE1-EO0 edge-EO0-DE1 edge-DE1-DO0 edge-DO0-CE1 edge-CE1-CO0 edge-CO0-BE1 edge-BE1-BO0 edge-BO0-AE1 edge-AE1-AO0 edge-AO0-AN2"/>
	<route id="EE-D-C-B-LE" edges="edge-EE2-EE1 edge-EE1-EO0 edge-EO0-DE1 edge-DE1-DO0 edge-DO0-CE1 edge-CE1-CO0 edge-CO0-BE1 edge-BE1-BO0 edge-BO0-BS2"/>
	<route id="EE-D-C-B-RI" edges="edge-EE2-EE1 edge-EE1-EO0 edge-EO0-DE1 edge-DE1-DO0 edge-DO0-CE1 edge-CE1-CO0 edge-CO0-BE1 edge-BE1-BO0 edge-BO0-BN2"/>
	<route id="EE-D-C-LE" edges="edge-EE2-EE1 edge-EE1-EO0 edge-EO0-DE1 edge-DE1-DO0 edge-DO0-CE1 edge-CE1-CO0 edge-CO0-CS2"/>
	<route id="EE-D-C-RI" edges="edge-EE2-EE1 edge-EE1-EO0 edge-EO0-DE1 edge-DE1-DO0 edge-DO0-CE1 edge-CE1-CO0 edge-CO0-CN2"/>
	<route id="EE-D-LE" edges="edge-EE2-EE1 edge-EE1-EO0 edge-EO0-DE1 edge-DE1-DO0 edge-DO0-DS2"/>
	<route id="EE-D-RI" edges="edge-EE2-EE1 edge-EE1-EO0 edge-EO0-DE1 edge-DE1-DO0 edge-DO0-DN1"/>
	<route id="EE-LE" edges="edge-EE2-EE1 edge-EE1-EO0 edge-EO0-ES2"/>
	<route id="EE-RI" edges="edge-EE2-EE1 edge-EE1-EO0 edge-EO0-EN2"/>
	
	<route id="ES-D-C-B-A-LE" edges="edge-ES2-ES1 edge-ES1-EO0 edge-EO0-DE1 edge-DE1-DO0 edge-DO0-CE1 edge-CE1-CO0 edge-CO0-BE1 edge-BE1-BO0 edge-BO0-AE1 edge-AE1-AO0 edge-AO0-AS2"/>
	<route id="ES-D-C-B-A-ST" edges="edge-ES2-ES1 edge-ES1-EO0 edge-EO0-DE1 edge-DE1-DO0 edge-DO0-CE1 edge-CE1-CO0 edge-CO0-BE1 edge-BE1-BO0 edge-BO0-AE1 edge-AE1-AO0 edge-AO0-AW2"/>
	<route id="ES-D-C-B-A-RI" edges="edge-ES2-ES1 edge-ES1-EO0 edge-EO0-DE1 edge-DE1-DO0 edge-DO0-CE1 edge-CE1-CO0 edge-CO0-BE1 edge-BE1-BO0 edge-BO0-AE1 edge-AE1-AO0 edge-AO0-AN2"/>
	<route id="ES-D-C-B-LE" edges="edge-ES2-ES1 edge-ES1-EO0 edge-EO0-DE1 edge-DE1-DO0 edge-DO0-CE1 edge-CE1-CO0 edge-CO0-BE1 edge-BE1-BO0 edge-BO0-BS2"/>
	<route id="ES-D-C-B-RI" edges="edge-ES2-ES1 edge-ES1-EO0 edge-EO0-DE1 edge-DE1-DO0 edge-DO0-CE1 edge-CE1-CO0 edge-CO0-BE1 edge-BE1-BO0 edge-BO0-BN2"/>
	<route id="ES-D-C-LE" edges="edge-ES2-ES1 edge-ES1-EO0 edge-EO0-DE1 edge-DE1-DO0 edge-DO0-CE1 edge-CE1-CO0 edge-CO0-CS2"/>
	<route id="ES-D-C-RI" edges="edge-ES2-ES1 edge-ES1-EO0 edge-EO0-DE1 edge-DE1-DO0 edge-DO0-CE1 edge-CE1-CO0 edge-CO0-CN2"/>
	<route id="ES-D-LE" edges="edge-ES2-ES1 edge-ES1-EO0 edge-EO0-DE1 edge-DE1-DO0 edge-DO0-DS2"/>
	<route id="ES-D-RI" edges="edge-ES2-ES1 edge-ES1-EO0 edge-EO0-DE1 edge-DE1-DO0 edge-DO0-DN1"/>
	<route id="ES-ST" edges="edge-ES2-ES1 edge-ES1-EO0 edge-EO0-EN2"/>
	<route id="ES-RI" edges="edge-ES2-ES1 edge-ES1-EO0 edge-EO0-EE2"/>
	
	<route id="EN-D-C-B-A-LE" edges="edge-EN2-EN1 edge-EN1-EO0 edge-EO0-DE1 edge-DE1-DO0 edge-DO0-CE1 edge-CE1-CO0 edge-CO0-BE1 edge-BE1-BO0 edge-BO0-AE1 edge-AE1-AO0 edge-AO0-AS2"/>
	<route id="EN-D-C-B-A-ST" edges="edge-EN2-EN1 edge-EN1-EO0 edge-EO0-DE1 edge-DE1-DO0 edge-DO0-CE1 edge-CE1-CO0 edge-CO0-BE1 edge-BE1-BO0 edge-BO0-AE1 edge-AE1-AO0 edge-AO0-AW2"/>
	<route id="EN-D-C-B-A-RI" edges="edge-EN2-EN1 edge-EN1-EO0 edge-EO0-DE1 edge-DE1-DO0 edge-DO0-CE1 edge-CE1-CO0 edge-CO0-BE1 edge-BE1-BO0 edge-BO0-AE1 edge-AE1-AO0 edge-AO0-AN2"/>
	<route id="EN-D-C-B-LE" edges="edge-EN2-EN1 edge-EN1-EO0 edge-EO0-DE1 edge-DE1-DO0 edge-DO0-CE1 edge-CE1-CO0 edge-CO0-BE1 edge-BE1-BO0 edge-BO0-BS2"/>
	<route id="EN-D-C-B-RI" edges="edge-EN2-EN1 edge-EN1-EO0 edge-EO0-DE1 edge-DE1-DO0 edge-DO0-CE1 edge-CE1-CO0 edge-CO0-BE1 edge-BE1-BO0 edge-BO0-BN2"/>
	<route id="EN-D-C-LE" edges="edge-EN2-EN1 edge-EN1-EO0 edge-EO0-DE1 edge-DE1-DO0 edge-DO0-CE1 edge-CE1-CO0 edge-CO0-CS2"/>
	<route id="EN-D-C-RI" edges="edge-EN2-EN1 edge-EN1-EO0 edge-EO0-DE1 edge-DE1-DO0 edge-DO0-CE1 edge-CE1-CO0 edge-CO0-CN2"/>
	<route id="EN-D-LE" edges="edge-EN2-EN1 edge-EN1-EO0 edge-EO0-DE1 edge-DE1-DO0 edge-DO0-DS2"/>
	<route id="EN-D-RI" edges="edge-EN2-EN1 edge-EN1-EO0 edge-EO0-DE1 edge-DE1-DO0 edge-DO0-DN1"/>
	<route id="EN-LE" edges="edge-EN2-EN1 edge-EN1-EO0 edge-EO0-EE2"/>
	<route id="EN-ST" edges="edge-EN2-EN1 edge-EN1-EO0 edge-EO0-ES2"/>

    <flow id="0" route="AW-LE" begin="0" end="600" number="58" type="private" departLane="best"/>
    <flow id="1" route="AW-RI" begin="0" end="600" number="23" type="private" departLane="best"/>
    <flow id="2" route="AW-B-LE" begin="0" end="600" number="35" type="private" departLane="best"/>
    <flow id="3" route="AW-B-RI" begin="0" end="600" number="13" type="private" departLane="best"/>
    <flow id="4" route="AW-B-C-LE" begin="0" end="600" number="19" type="private" departLane="best"/>
    <flow id="5" route="AW-B-C-RI" begin="0" end="600" number="10" type="private" departLane="best"/>
    <flow id="6" route="AW-B-C-D-RI" begin="0" end="600" number="23" type="private" departLane="best"/>
    <flow id="7" route="AW-B-C-D-E-LE" begin="0" end="600" number="24" type="private" departLane="best"/>
    <flow id="8" route="AW-B-C-D-E-ST" begin="0" end="600" number="180" type="private" departLane="best"/>
    <flow id="9" route="AW-B-C-D-E-RI" begin="0" end="600" number="7" type="private" departLane="best"/>
    <flow id="10" route="AS-LE" begin="0" end="600" number="9" type="private" departLane="best"/>
    <flow id="11" route="AS-ST" begin="0" end="600" number="13" type="private" departLane="best"/>
    <flow id="12" route="AS-B-LE" begin="0" end="600" number="1" type="private" departLane="best"/>
    <flow id="13" route="AS-B-RI" begin="0" end="600" number="1" type="private" departLane="best"/>
    <flow id="14" route="AS-B-C-LE" begin="0" end="600" number="1" type="private" departLane="best"/>
    <flow id="15" route="AS-B-C-RI" begin="0" end="600" number="1" type="private" departLane="best"/>
    <flow id="16" route="AS-B-C-D-RI" begin="0" end="600" number="1" type="private" departLane="best"/>
    <flow id="17" route="AS-B-C-D-E-LE" begin="0" end="600" number="1" type="private" departLane="best"/>
    <flow id="18" route="AS-B-C-D-E-ST" begin="0" end="600" number="2" type="private" departLane="best"/>
    <flow id="19" route="AS-B-C-D-E-RI" begin="0" end="600" number="1" type="private" departLane="best"/>
    <flow id="20" route="AN-RI" begin="0" end="600" number="17" type="private" departLane="best"/>
    <flow id="21" route="AN-ST" begin="0" end="600" number="20" type="private" departLane="best"/>
    <flow id="22" route="AN-B-LE" begin="0" end="600" number="1" type="private" departLane="best"/>
    <flow id="23" route="AN-B-RI" begin="0" end="600" number="1" type="private" departLane="best"/>
    <flow id="24" route="AN-B-C-LE" begin="0" end="600" number="1" type="private" departLane="best"/>
    <flow id="25" route="AN-B-C-RI" begin="0" end="600" number="1" type="private" departLane="best"/>
    <flow id="26" route="AN-B-C-D-RI" begin="0" end="600" number="4" type="private" departLane="best"/>
    <flow id="27" route="AN-B-C-D-E-LE" begin="0" end="600" number="1" type="private" departLane="best"/>
    <flow id="28" route="AN-B-C-D-E-ST" begin="0" end="600" number="14" type="private" departLane="best"/>
    <flow id="29" route="AN-B-C-D-E-RI" begin="0" end="600" number="2" type="private" departLane="best"/>
    <flow id="30" route="BS-A-LE" begin="0" end="600" number="1" type="private" departLane="best"/>
    <flow id="31" route="BS-A-ST" begin="0" end="600" number="15" type="private" departLane="best"/>
    <flow id="32" route="BS-A-RI" begin="0" end="600" number="3" type="private" departLane="best"/>
    <flow id="33" route="BS-ST" begin="0" end="600" number="15" type="private" departLane="best"/>
    <flow id="34" route="BS-C-LE" begin="0" end="600" number="1" type="private" departLane="best"/>
    <flow id="35" route="BS-C-RI" begin="0" end="600" number="1" type="private" departLane="best"/>
    <flow id="36" route="BS-C-D-RI" begin="0" end="600" number="1" type="private" departLane="best"/>
    <flow id="37" route="BS-C-D-E-LE" begin="0" end="600" number="2" type="private" departLane="best"/>
    <flow id="38" route="BS-C-D-E-ST" begin="0" end="600" number="9" type="private" departLane="best"/>
    <flow id="39" route="BS-C-D-E-RI" begin="0" end="600" number="1" type="private" departLane="best"/>
    <flow id="40" route="BN-A-LE" begin="0" end="600" number="9" type="private" departLane="best"/>
    <flow id="41" route="BN-A-ST" begin="0" end="600" number="55" type="private" departLane="best"/>
    <flow id="42" route="BN-A-RI" begin="0" end="600" number="4" type="private" departLane="best"/>
    <flow id="43" route="BN-ST" begin="0" end="600" number="24" type="private" departLane="best"/>
    <flow id="44" route="BN-C-LE" begin="0" end="600" number="4" type="private" departLane="best"/>
    <flow id="45" route="BN-C-RI" begin="0" end="600" number="3" type="private" departLane="best"/>
    <flow id="46" route="BN-C-D-RI" begin="0" end="600" number="10" type="private" departLane="best"/>
    <flow id="47" route="BN-C-D-E-LE" begin="0" end="600" number="2" type="private" departLane="best"/>
    <flow id="48" route="BN-C-D-E-ST" begin="0" end="600" number="36" type="private" departLane="best"/>
    <flow id="49" route="BN-C-D-E-RI" begin="0" end="600" number="3" type="private" departLane="best"/>
    <flow id="50" route="CS-B-A-LE" begin="0" end="600" number="1" type="private" departLane="best"/>
    <flow id="51" route="CS-B-A-ST" begin="0" end="600" number="9" type="private" departLane="best"/>
    <flow id="52" route="CS-B-A-RI" begin="0" end="600" number="1" type="private" departLane="best"/>
    <flow id="53" route="CS-B-LE" begin="0" end="600" number="1" type="private" departLane="best"/>
    <flow id="54" route="CS-B-RI" begin="0" end="600" number="1" type="private" departLane="best"/>
    <flow id="55" route="CS-ST" begin="0" end="600" number="16" type="private" departLane="best"/>
    <flow id="56" route="CS-D-RI" begin="0" end="600" number="1" type="private" departLane="best"/>
    <flow id="57" route="CS-D-E-LE" begin="0" end="600" number="1" type="private" departLane="best"/>
    <flow id="58" route="CS-D-E-ST" begin="0" end="600" number="33" type="private" departLane="best"/>
    <flow id="59" route="CS-D-E-RI" begin="0" end="600" number="1" type="private" departLane="best"/>
    <flow id="60" route="CN-B-A-LE" begin="0" end="600" number="4" type="private" departLane="best"/>
    <flow id="61" route="CN-B-A-ST" begin="0" end="600" number="16" type="private" departLane="best"/>
    <flow id="62" route="CN-B-A-RI" begin="0" end="600" number="1" type="private" departLane="best"/>
    <flow id="63" route="CN-B-LE" begin="0" end="600" number="2" type="private" departLane="best"/>
    <flow id="64" route="CN-B-RI" begin="0" end="600" number="2" type="private" departLane="best"/>
    <flow id="65" route="CN-ST" begin="0" end="600" number="18" type="private" departLane="best"/>
    <flow id="66" route="CN-D-RI" begin="0" end="600" number="1" type="private" departLane="best"/>
    <flow id="67" route="CN-D-E-LE" begin="0" end="600" number="1" type="private" departLane="best"/>
    <flow id="68" route="CN-D-E-ST" begin="0" end="600" number="7" type="private" departLane="best"/>
    <flow id="69" route="CN-D-E-RI" begin="0" end="600" number="1" type="private" departLane="best"/>
    <flow id="70" route="DS-C-B-A-LE" begin="0" end="600" number="1" type="private" departLane="best"/>
    <flow id="71" route="DS-C-B-A-ST" begin="0" end="600" number="14" type="private" departLane="best"/>
    <flow id="72" route="DS-C-B-A-RI" begin="0" end="600" number="1" type="private" departLane="best"/>
    <flow id="73" route="DS-C-B-LE" begin="0" end="600" number="1" type="private" departLane="best"/>
    <flow id="74" route="DS-C-B-RI" begin="0" end="600" number="2" type="private" departLane="best"/>
    <flow id="75" route="DS-C-LE" begin="0" end="600" number="1" type="private" departLane="best"/>
    <flow id="76" route="DS-C-RI" begin="0" end="600" number="1" type="private" departLane="best"/>
    <flow id="77" route="DS-ST" begin="0" end="600" number="18" type="private" departLane="best"/>
    <flow id="78" route="DS-E-LE" begin="0" end="600" number="1" type="private" departLane="best"/>
    <flow id="79" route="DS-E-ST" begin="0" end="600" number="20" type="private" departLane="best"/>
    <flow id="80" route="DS-E-RI" begin="0" end="600" number="1" type="private" departLane="best"/>
    <flow id="81" route="DN-C-B-A-LE" begin="0" end="600" number="1" type="private" departLane="best"/>
    <flow id="82" route="DN-C-B-A-ST" begin="0" end="600" number="7" type="private" departLane="best"/>
    <flow id="83" route="DN-C-B-A-RI" begin="0" end="600" number="1" type="private" departLane="best"/>
    <flow id="84" route="DN-C-B-LE" begin="0" end="600" number="1" type="private" departLane="best"/>
    <flow id="85" route="DN-C-B-RI" begin="0" end="600" number="1" type="private" departLane="best"/>
    <flow id="86" route="DN-C-LE" begin="0" end="600" number="1" type="private" departLane="best"/>
    <flow id="87" route="DN-C-RI" begin="0" end="600" number="1" type="private" departLane="best"/>
    <flow id="88" route="DN-ST" begin="0" end="600" number="7" type="private" departLane="best"/>
    <flow id="89" route="DN-E-LE" begin="0" end="600" number="1" type="private" departLane="best"/>
    <flow id="90" route="DN-E-ST" begin="0" end="600" number="6" type="private" departLane="best"/>
    <flow id="91" route="DN-E-RI" begin="0" end="600" number="1" type="private" departLane="best"/>
    <flow id="92" route="ES-D-C-B-A-LE" begin="0" end="600" number="2" type="private" departLane="best"/>
    <flow id="93" route="ES-D-C-B-A-ST" begin="0" end="600" number="2" type="private" departLane="best"/>
    <flow id="94" route="ES-D-C-B-A-RI" begin="0" end="600" number="1" type="private" departLane="best"/>
    <flow id="95" route="ES-D-C-B-LE" begin="0" end="600" number="2" type="private" departLane="best"/>
    <flow id="96" route="ES-D-C-B-RI" begin="0" end="600" number="1" type="private" departLane="best"/>
    <flow id="97" route="ES-D-C-LE" begin="0" end="600" number="1" type="private" departLane="best"/>
    <flow id="98" route="ES-D-C-RI" begin="0" end="600" number="1" type="private" departLane="best"/>
    <flow id="99" route="ES-D-LE" begin="0" end="600" number="1" type="private" departLane="best"/>
    <flow id="100" route="ES-D-RI" begin="0" end="600" number="1" type="private" departLane="best"/>
    <flow id="101" route="ES-ST" begin="0" end="600" number="27" type="private" departLane="best"/>
    <flow id="102" route="ES-RI" begin="0" end="600" number="23" type="private" departLane="best"/>
    <flow id="103" route="EN-D-C-B-A-LE" begin="0" end="600" number="1" type="private" departLane="best"/>
    <flow id="104" route="EN-D-C-B-A-ST" begin="0" end="600" number="5" type="private" departLane="best"/>
    <flow id="105" route="EN-D-C-B-A-RI" begin="0" end="600" number="1" type="private" departLane="best"/>
    <flow id="106" route="EN-D-C-B-LE" begin="0" end="600" number="1" type="private" departLane="best"/>
    <flow id="107" route="EN-D-C-B-RI" begin="0" end="600" number="1" type="private" departLane="best"/>
    <flow id="108" route="EN-D-C-LE" begin="0" end="600" number="1" type="private" departLane="best"/>
    <flow id="109" route="EN-D-C-RI" begin="0" end="600" number="1" type="private" departLane="best"/>
    <flow id="110" route="EN-D-LE" begin="0" end="600" number="1" type="private" departLane="best"/>
    <flow id="111" route="EN-D-RI" begin="0" end="600" number="1" type="private" departLane="best"/>
    <flow id="112" route="EN-LE" begin="0" end="600" number="52" type="private" departLane="best"/>
    <flow id="113" route="EN-ST" begin="0" end="600" number="60" type="private" departLane="best"/>
    <flow id="114" route="EE-D-C-B-A-LE" begin="0" end="600" number="40" type="private" departLane="best"/>
    <flow id="115" route="EE-D-C-B-A-ST" begin="0" end="600" number="141" type="private" departLane="best"/>
    <flow id="116" route="EE-D-C-B-A-RI" begin="0" end="600" number="16" type="private" departLane="best"/>
    <flow id="117" route="EE-D-C-B-LE" begin="0" end="600" number="14" type="private" departLane="best"/>
    <flow id="118" route="EE-D-C-B-RI" begin="0" end="600" number="41" type="private" departLane="best"/>
    <flow id="119" route="EE-D-C-LE" begin="0" end="600" number="18" type="private" departLane="best"/>
    <flow id="120" route="EE-D-C-RI" begin="0" end="600" number="17" type="private" departLane="best"/>
    <flow id="121" route="EE-D-LE" begin="0" end="600" number="9" type="private" departLane="best"/>
    <flow id="122" route="EE-D-RI" begin="0" end="600" number="30" type="private" departLane="best"/>
    <flow id="123" route="EE-LE" begin="0" end="600" number="29" type="private" departLane="best"/>
    <flow id="124" route="EE-RI" begin="0" end="600" number="42" type="private" departLane="best"/>
    <flow id="125" route="AW-LE" begin="600" end="1200" number="58" type="private" departLane="best"/>
    <flow id="126" route="AW-RI" begin="600" end="1200" number="23" type="private" departLane="best"/>
    <flow id="127" route="AW-B-LE" begin="600" end="1200" number="35" type="private" departLane="best"/>
    <flow id="128" route="AW-B-RI" begin="600" end="1200" number="13" type="private" departLane="best"/>
    <flow id="129" route="AW-B-C-LE" begin="600" end="1200" number="19" type="private" departLane="best"/>
    <flow id="130" route="AW-B-C-RI" begin="600" end="1200" number="10" type="private" departLane="best"/>
    <flow id="131" route="AW-B-C-D-RI" begin="600" end="1200" number="23" type="private" departLane="best"/>
    <flow id="132" route="AW-B-C-D-E-LE" begin="600" end="1200" number="24" type="private" departLane="best"/>
    <flow id="133" route="AW-B-C-D-E-ST" begin="600" end="1200" number="180" type="private" departLane="best"/>
    <flow id="134" route="AW-B-C-D-E-RI" begin="600" end="1200" number="7" type="private" departLane="best"/>
    <flow id="135" route="AS-LE" begin="600" end="1200" number="9" type="private" departLane="best"/>
    <flow id="136" route="AS-ST" begin="600" end="1200" number="13" type="private" departLane="best"/>
    <flow id="137" route="AS-B-LE" begin="600" end="1200" number="1" type="private" departLane="best"/>
    <flow id="138" route="AS-B-RI" begin="600" end="1200" number="1" type="private" departLane="best"/>
    <flow id="139" route="AS-B-C-LE" begin="600" end="1200" number="1" type="private" departLane="best"/>
    <flow id="140" route="AS-B-C-RI" begin="600" end="1200" number="1" type="private" departLane="best"/>
    <flow id="141" route="AS-B-C-D-RI" begin="600" end="1200" number="1" type="private" departLane="best"/>
    <flow id="142" route="AS-B-C-D-E-LE" begin="600" end="1200" number="1" type="private" departLane="best"/>
    <flow id="143" route="AS-B-C-D-E-ST" begin="600" end="1200" number="2" type="private" departLane="best"/>
    <flow id="144" route="AS-B-C-D-E-RI" begin="600" end="1200" number="1" type="private" departLane="best"/>