<routes>
<!--route AW-LE-->
    <route id="AW-LE-bus" edges="edge-AW2-AW1 edge-AW1-AO0 edge-AO0-AN2"/>
	<vehicle id="AA1" depart="00" type="bus" color="0,1,0" route="AW-LE-bus">
		<stop busStop="busStop#1"   duration="20"/>
		<stop busStop="busStop#30"  duration="20"/>
    </vehicle>
	<vehicle id="AA2" depart="300" type="bus" color="0,1,1" route="AW-LE-bus">
		<stop busStop="busStop#1"   duration="20"/>
		<stop busStop="busStop#30"  duration="20"/>
    </vehicle>
	<vehicle id="AA3" depart="600" type="bus" color="1,1,1" route="AW-LE-bus">
		<stop busStop="busStop#1"   duration="20"/>
		<stop busStop="busStop#30"  duration="20"/>
    </vehicle>
	<vehicle id="AA4" depart="900" type="bus" color="0,0,1" route="AW-LE-bus">
		<stop busStop="busStop#1"   duration="20"/>
		<stop busStop="busStop#30"  duration="20"/>
    </vehicle>
<!--route AW-B-LE-->	
    <route id="AW-B-LE-bus" edges="edge-AW2-AW1 edge-AW1-AO0 edge-AO0-BW1 edge-BW1-BO0 edge-BO0-BN2"/>
	<vehicle id="AB1" depart="00" type="bus" color="0,1,0" route="AW-B-LE-bus">
		<stop busStop="busStop#1"   duration="20"/>
		<stop busStop="busStop#2"   duration="20"/>
		<stop busStop="busStop#29"  duration="20"/>
    </vehicle>
	<vehicle id="AB2" depart="300" type="bus" color="0,1,1" route="AW-B-LE-bus">
		<stop busStop="busStop#1"   duration="20"/>
		<stop busStop="busStop#2"   duration="20"/>
		<stop busStop="busStop#29"  duration="20"/>
    </vehicle>
	<vehicle id="AB3" depart="600" type="bus" color="1,1,1" route="AW-B-LE-bus">
		<stop busStop="busStop#1"   duration="20"/>
		<stop busStop="busStop#2"   duration="20"/>
		<stop busStop="busStop#29"  duration="20"/>
    </vehicle>
	<vehicle id="AB4" depart="900" type="bus" color="0,0,1" route="AW-B-LE-bus">
		<stop busStop="busStop#1"   duration="20"/>
		<stop busStop="busStop#2"   duration="20"/>
		<stop busStop="busStop#29"  duration="20"/>
    </vehicle>	
<!--route AW-B-RI-->	
	<route id="AW-B-RI-bus" edges="edge-AW2-AW1 edge-AW1-AO0 edge-AO0-BW1 edge-BW1-BO0 edge-BO0-BS2"/>
	<vehicle id="AC1" depart="00" type="bus" color="0,1,0" route="AW-B-RI-bus">
		<stop busStop="busStop#1"   duration="20"/>
		<stop busStop="busStop#2"   duration="20"/>
		<stop busStop="busStop#23"  duration="20"/>
    </vehicle>
	<vehicle id="AC2" depart="300" type="bus" color="0,1,1" route="AW-B-RI-bus">
		<stop busStop="busStop#1"   duration="20"/>
		<stop busStop="busStop#2"   duration="20"/>
		<stop busStop="busStop#23"  duration="20"/>
    </vehicle>
	<vehicle id="AC3" depart="600" type="bus" color="1,1,1" route="AW-B-RI-bus">
		<stop busStop="busStop#1"   duration="20"/>
		<stop busStop="busStop#2"   duration="20"/>
		<stop busStop="busStop#23"  duration="20"/>
    </vehicle>
	<vehicle id="AC4" depart="900" type="bus" color="0,0,1" route="AW-B-RI-bus">
		<stop busStop="busStop#1"   duration="20"/>
		<stop busStop="busStop#2"   duration="20"/>
		<stop busStop="busStop#23"  duration="20"/>
    </vehicle>	
<!--route AW-B-C-LE-->	
	<route id="AW-B-C-LE-bus" edges="edge-AW2-AW1 edge-AW1-AO0 edge-AO0-BW1 edge-BW1-BO0 edge-BO0-CW1 edge-CW1-CO0 edge-CO0-CN2"/>
	<vehicle id="AD1" depart="00" type="bus" color="0,1,0" route="AW-B-C-LE-bus">
		<stop busStop="busStop#1"   duration="20"/>
		<stop busStop="busStop#2"   duration="20"/>
		<stop busStop="busStop#4"   duration="20"/>
		<stop busStop="busStop#28"  duration="20"/>
    </vehicle>
	<vehicle id="AD2" depart="300" type="bus" color="0,1,1" route="AW-B-C-LE-bus">
		<stop busStop="busStop#1"   duration="20"/>
		<stop busStop="busStop#2"   duration="20"/>
		<stop busStop="busStop#4"   duration="20"/>
		<stop busStop="busStop#28"  duration="20"/>
    </vehicle>
	<vehicle id="AD3" depart="600" type="bus" color="1,1,1" route="AW-B-C-LE-bus">
		<stop busStop="busStop#1"   duration="20"/>
		<stop busStop="busStop#2"   duration="20"/>
		<stop busStop="busStop#4"   duration="20"/>
		<stop busStop="busStop#28"  duration="20"/>
    </vehicle>
	<vehicle id="AD4" depart="900" type="bus" color="0,0,1" route="AW-B-C-LE-bus">
		<stop busStop="busStop#1"   duration="20"/>
		<stop busStop="busStop#2"   duration="20"/>
		<stop busStop="busStop#4"   duration="20"/>
		<stop busStop="busStop#28"  duration="20"/>
    </vehicle>	
<!--route AW-B-C-RI-->	
	<route id="AW-B-C-RI-bus" edges="edge-AW2-AW1 edge-AW1-AO0 edge-AO0-BW1 edge-BW1-BO0 edge-BO0-CW1 edge-CW1-CO0 edge-CO0-CS2"/>
	<vehicle id="AE1" depart="00" type="bus" color="0,1,0" route="AW-B-C-RI-bus">
		<stop busStop="busStop#1"   duration="20"/>
		<stop busStop="busStop#2"   duration="20"/>
		<stop busStop="busStop#4"   duration="20"/>
		<stop busStop="busStop#24"  duration="20"/>
    </vehicle>
	<vehicle id="AE2" depart="300" type="bus" color="0,1,1" route="AW-B-C-RI-bus">
		<stop busStop="busStop#1"   duration="20"/>
		<stop busStop="busStop#2"   duration="20"/>
		<stop busStop="busStop#4"   duration="20"/>
		<stop busStop="busStop#24"  duration="20"/>
    </vehicle>
	<vehicle id="AE3" depart="600" type="bus" color="1,1,1" route="AW-B-C-RI-bus">
		<stop busStop="busStop#1"   duration="20"/>
		<stop busStop="busStop#2"   duration="20"/>
		<stop busStop="busStop#4"   duration="20"/>
		<stop busStop="busStop#24"  duration="20"/>
    </vehicle>
	<vehicle id="AE4" depart="900" type="bus" color="0,0,1" route="AW-B-C-RI-bus">
		<stop busStop="busStop#1"   duration="20"/>
		<stop busStop="busStop#2"   duration="20"/>
		<stop busStop="busStop#4"   duration="20"/>
		<stop busStop="busStop#24"  duration="20"/>
    </vehicle>	
<!--route AW-B-C-D-RI-->	
	<route id="AW-B-C-D-RI-bus" edges="edge-AW2-AW1 edge-AW1-AO0 edge-AO0-BW1 edge-BW1-BO0 edge-BO0-CW1 edge-CW1-CO0 edge-CO0-DW1 edge-DW1-DO0 edge-DO0-DS2"/>
	<vehicle id="AF1" depart="00" type="bus" color="0,1,0" route="AW-B-C-D-RI-bus">
		<stop busStop="busStop#1"   duration="20"/>
		<stop busStop="busStop#2"   duration="20"/>
		<stop busStop="busStop#4"   duration="20"/>
		<stop busStop="busStop#5"   duration="20"/>
		<stop busStop="busStop#25"  duration="20"/>
    </vehicle>
	<vehicle id="AF2" depart="300" type="bus" color="0,1,1" route="AW-B-C-D-RI-bus">
		<stop busStop="busStop#1"   duration="20"/>
		<stop busStop="busStop#2"   duration="20"/>
		<stop busStop="busStop#4"   duration="20"/>
		<stop busStop="busStop#5"   duration="20"/>
		<stop busStop="busStop#25"  duration="20"/>
    </vehicle>
	<vehicle id="AF3" depart="600" type="bus" color="1,1,1" route="AW-B-C-D-RI-bus">
		<stop busStop="busStop#1"   duration="20"/>
		<stop busStop="busStop#2"   duration="20"/>
		<stop busStop="busStop#4"   duration="20"/>
		<stop busStop="busStop#5"   duration="20"/>
		<stop busStop="busStop#25"  duration="20"/>
    </vehicle>
	<vehicle id="AF4" depart="900" type="bus" color="0,0,1" route="AW-B-C-D-RI-bus">
		<stop busStop="busStop#1"   duration="20"/>
		<stop busStop="busStop#2"   duration="20"/>
		<stop busStop="busStop#4"   duration="20"/>
		<stop busStop="busStop#5"   duration="20"/>
		<stop busStop="busStop#25"  duration="20"/>
    </vehicle>	
<!--route AW-B-C-D-E-LE-->	
	<route id="AW-B-C-D-E-LE-bus" edges="edge-AW2-AW1 edge-AW1-AO0 edge-AO0-BW1 edge-BW1-BO0 edge-BO0-CW1 edge-CW1-CO0 edge-CO0-DW1 edge-DW1-DO0 edge-DO0-EW1 edge-EW1-EO0 edge-EO0-EN2"/>	
	<vehicle id="AG1" depart="00" type="bus" color="0,1,0" route="AW-B-C-D-E-LE-bus">
		<stop busStop="busStop#1"   duration="20"/>
		<stop busStop="busStop#2"   duration="20"/>
		<stop busStop="busStop#4"   duration="20"/>
		<stop busStop="busStop#5"   duration="20"/>
		<stop busStop="busStop#6"   duration="20"/>
		<stop busStop="busStop#27"  duration="20"/>
    </vehicle>
	<vehicle id="AG2" depart="300" type="bus" color="0,1,1" route="AW-B-C-D-E-LE-bus">
		<stop busStop="busStop#1"   duration="20"/>
		<stop busStop="busStop#2"   duration="20"/>
		<stop busStop="busStop#4"   duration="20"/>
		<stop busStop="busStop#5"   duration="20"/>
		<stop busStop="busStop#6"   duration="20"/>
		<stop busStop="busStop#27"  duration="20"/>
    </vehicle>
	<vehicle id="AG3" depart="600" type="bus" color="1,1,1" route="AW-B-C-D-E-LE-bus">
		<stop busStop="busStop#1"   duration="20"/>
		<stop busStop="busStop#2"   duration="20"/>
		<stop busStop="busStop#4"   duration="20"/>
		<stop busStop="busStop#5"   duration="20"/>
		<stop busStop="busStop#6"   duration="20"/>
		<stop busStop="busStop#27"  duration="20"/>
    </vehicle>
	<vehicle id="AG4" depart="900" type="bus" color="0,0,1" route="AW-B-C-D-E-LE-bus">
		<stop busStop="busStop#1"   duration="20"/>
		<stop busStop="busStop#2"   duration="20"/>
		<stop busStop="busStop#4"   duration="20"/>
		<stop busStop="busStop#5"   duration="20"/>
		<stop busStop="busStop#6"   duration="20"/>
		<stop busStop="busStop#27"  duration="20"/>
    </vehicle>
<!--route AW-B-C-D-E-ST-->
	<route id="AW-B-C-D-E-ST-bus" edges="edge-AW2-AW1 edge-AW1-AO0 edge-AO0-BW1 edge-BW1-BO0 edge-BO0-CW1 edge-CW1-CO0 edge-CO0-DW1 edge-DW1-DO0 edge-DO0-EW1 edge-EW1-EO0 edge-EO0-EE2"/>
	<vehicle id="AH1" depart="00" type="bus" color="0,1,0" route="AW-B-C-D-E-ST-bus">
		<stop busStop="busStop#1"  duration="20"/>
		<stop busStop="busStop#2"  duration="20"/>
		<stop busStop="busStop#3"  duration="20"/>
		<stop busStop="busStop#5"  duration="20"/>
		<stop busStop="busStop#6"  duration="20"/>
		<stop busStop="busStop#7"  duration="20"/>
    </vehicle>
	<vehicle id="AH2" depart="300" type="bus" color="0,1,1" route="AW-B-C-D-E-ST-bus">
		<stop busStop="busStop#1"  duration="20"/>
		<stop busStop="busStop#2"  duration="20"/>
		<stop busStop="busStop#3"  duration="20"/>
		<stop busStop="busStop#5"  duration="20"/>
		<stop busStop="busStop#6"  duration="20"/>
		<stop busStop="busStop#7"  duration="20"/>
    </vehicle>
	<vehicle id="AH3" depart="600" type="bus" color="1,1,1" route="AW-B-C-D-E-ST-bus">
		<stop busStop="busStop#1"  duration="20"/>
		<stop busStop="busStop#2"  duration="20"/>
		<stop busStop="busStop#3"  duration="20"/>
		<stop busStop="busStop#5"  duration="20"/>
		<stop busStop="busStop#6"  duration="20"/>
		<stop busStop="busStop#7"  duration="20"/>
    </vehicle>
	<vehicle id="AH4" depart="900" type="bus" color="0,0,1" route="AW-B-C-D-E-ST-bus">
		<stop busStop="busStop#1"  duration="20"/>
		<stop busStop="busStop#2"  duration="20"/>
		<stop busStop="busStop#3"  duration="20"/>
		<stop busStop="busStop#5"  duration="20"/>
		<stop busStop="busStop#6"  duration="20"/>
		<stop busStop="busStop#7"  duration="20"/>
    </vehicle>
	<vehicle id="AH5" depart="1200" type="bus" color="0,0,1" route="AW-B-C-D-E-ST-bus">
		<stop busStop="busStop#1"  duration="20"/>
		<stop busStop="busStop#2"  duration="20"/>
		<stop busStop="busStop#3"  duration="20"/>
		<stop busStop="busStop#5"  duration="20"/>
		<stop busStop="busStop#6"  duration="20"/>
		<stop busStop="busStop#7"  duration="20"/>
    </vehicle>
	<vehicle id="AH6" depart="1500" type="bus" color="0,0,1" route="AW-B-C-D-E-ST-bus">
		<stop busStop="busStop#1"  duration="20"/>
		<stop busStop="busStop#2"  duration="20"/>
		<stop busStop="busStop#3"  duration="20"/>
		<stop busStop="busStop#5"  duration="20"/>
		<stop busStop="busStop#6"  duration="20"/>
		<stop busStop="busStop#7"  duration="20"/>
    </vehicle>
	<vehicle id="AH7" depart="1800" type="bus" color="0,0,1" route="AW-B-C-D-E-ST-bus">
		<stop busStop="busStop#1"  duration="20"/>
		<stop busStop="busStop#2"  duration="20"/>
		<stop busStop="busStop#3"  duration="20"/>
		<stop busStop="busStop#5"  duration="20"/>
		<stop busStop="busStop#6"  duration="20"/>
		<stop busStop="busStop#7"  duration="20"/>
    </vehicle>
	<vehicle id="AH8" depart="2100" type="bus" color="0,0,1" route="AW-B-C-D-E-ST-bus">
		<stop busStop="busStop#1"  duration="20"/>
		<stop busStop="busStop#2"  duration="20"/>
		<stop busStop="busStop#3"  duration="20"/>
		<stop busStop="busStop#5"  duration="20"/>
		<stop busStop="busStop#6"  duration="20"/>
		<stop busStop="busStop#7"  duration="20"/>
    </vehicle>
	<vehicle id="AH9" depart="2400" type="bus" color="0,0,1" route="AW-B-C-D-E-ST-bus">
		<stop busStop="busStop#1"  duration="20"/>
		<stop busStop="busStop#2"  duration="20"/>
		<stop busStop="busStop#3"  duration="20"/>
		<stop busStop="busStop#5"  duration="20"/>
		<stop busStop="busStop#6"  duration="20"/>
		<stop busStop="busStop#7"  duration="20"/>
    </vehicle>
	<vehicle id="AH10" depart="2700" type="bus" color="0,0,1" route="AW-B-C-D-E-ST-bus">
		<stop busStop="busStop#1"  duration="20"/>
		<stop busStop="busStop#2"  duration="20"/>
		<stop busStop="busStop#3"  duration="20"/>
		<stop busStop="busStop#5"  duration="20"/>
		<stop busStop="busStop#6"  duration="20"/>
		<stop busStop="busStop#7"  duration="20"/>
    </vehicle>
	<vehicle id="AH11" depart="3000" type="bus" color="0,0,1" route="AW-B-C-D-E-ST-bus">
		<stop busStop="busStop#1"  duration="20"/>
		<stop busStop="busStop#2"  duration="20"/>
		<stop busStop="busStop#3"  duration="20"/>
		<stop busStop="busStop#5"  duration="20"/>
		<stop busStop="busStop#6"  duration="20"/>
		<stop busStop="busStop#7"  duration="20"/>
    </vehicle>
	<vehicle id="AH12" depart="3300" type="bus" color="0,0,1" route="AW-B-C-D-E-ST-bus">
		<stop busStop="busStop#1"  duration="20"/>
		<stop busStop="busStop#2"  duration="20"/>
		<stop busStop="busStop#3"  duration="20"/>
		<stop busStop="busStop#5"  duration="20"/>
		<stop busStop="busStop#6"  duration="20"/>
		<stop busStop="busStop#7"  duration="20"/>
    </vehicle>
	<vehicle id="AH13" depart="3600" type="bus" color="0,0,1" route="AW-B-C-D-E-ST-bus">
		<stop busStop="busStop#1"  duration="20"/>
		<stop busStop="busStop#2"  duration="20"/>
		<stop busStop="busStop#3"  duration="20"/>
		<stop busStop="busStop#5"  duration="20"/>
		<stop busStop="busStop#6"  duration="20"/>
		<stop busStop="busStop#7"  duration="20"/>
    </vehicle>
	<vehicle id="AH14" depart="3900" type="bus" color="0,0,1" route="AW-B-C-D-E-ST-bus">
		<stop busStop="busStop#1"  duration="20"/>
		<stop busStop="busStop#2"  duration="20"/>
		<stop busStop="busStop#3"  duration="20"/>
		<stop busStop="busStop#5"  duration="20"/>
		<stop busStop="busStop#6"  duration="20"/>
		<stop busStop="busStop#7"  duration="20"/>
    </vehicle>
	<vehicle id="AH15" depart="4200" type="bus" color="0,0,1" route="AW-B-C-D-E-ST-bus">
		<stop busStop="busStop#1"  duration="20"/>
		<stop busStop="busStop#2"  duration="20"/>
		<stop busStop="busStop#3"  duration="20"/>
		<stop busStop="busStop#5"  duration="20"/>
		<stop busStop="busStop#6"  duration="20"/>
		<stop busStop="busStop#7"  duration="20"/>
    </vehicle>
	<vehicle id="AH16" depart="4500" type="bus" color="0,0,1" route="AW-B-C-D-E-ST-bus">
		<stop busStop="busStop#1"  duration="20"/>
		<stop busStop="busStop#2"  duration="20"/>
		<stop busStop="busStop#3"  duration="20"/>
		<stop busStop="busStop#5"  duration="20"/>
		<stop busStop="busStop#6"  duration="20"/>
		<stop busStop="busStop#7"  duration="20"/>
    </vehicle>
	<vehicle id="AH17" depart="4800" type="bus" color="0,0,1" route="AW-B-C-D-E-ST-bus">
		<stop busStop="busStop#1"  duration="20"/>
		<stop busStop="busStop#2"  duration="20"/>
		<stop busStop="busStop#3"  duration="20"/>
		<stop busStop="busStop#5"  duration="20"/>
		<stop busStop="busStop#6"  duration="20"/>
		<stop busStop="busStop#7"  duration="20"/>
    </vehicle>	
<!--route AW-B-C-D-E-RI-->	
	<route id="AW-B-C-D-E-RI-bus" edges="edge-AW2-AW1 edge-AW1-AO0 edge-AO0-BW1 edge-BW1-BO0 edge-BO0-CW1 edge-CW1-CO0 edge-CO0-DW1 edge-DW1-DO0 edge-DO0-EW1 edge-EW1-EO0 edge-EO0-ES2"/>  	
	<vehicle id="AI1" depart="00" type="bus" color="0,1,0" route="AW-B-C-D-E-RI-bus">
		<stop busStop="busStop#1"   duration="20"/>
		<stop busStop="busStop#2"   duration="20"/>
		<stop busStop="busStop#3"   duration="20"/>
		<stop busStop="busStop#5"   duration="20"/>
		<stop busStop="busStop#6"   duration="20"/>
		<stop busStop="busStop#26"  duration="20"/>
    </vehicle>
	<vehicle id="AI2" depart="300" type="bus" color="0,1,1" route="AW-B-C-D-E-RI-bus">
		<stop busStop="busStop#1"   duration="20"/>
		<stop busStop="busStop#2"   duration="20"/>
		<stop busStop="busStop#3"   duration="20"/>
		<stop busStop="busStop#5"   duration="20"/>
		<stop busStop="busStop#6"   duration="20"/>
		<stop busStop="busStop#26"  duration="20"/>
    </vehicle>
	<vehicle id="AI3" depart="600" type="bus" color="1,1,1" route="AW-B-C-D-E-RI-bus">
		<stop busStop="busStop#1"   duration="20"/>
		<stop busStop="busStop#2"   duration="20"/>
		<stop busStop="busStop#3"   duration="20"/>
		<stop busStop="busStop#5"   duration="20"/>
		<stop busStop="busStop#6"   duration="20"/>
		<stop busStop="busStop#26"  duration="20"/>
    </vehicle>
	<vehicle id="AI4" depart="900" type="bus" color="0,0,1" route="AW-B-C-D-E-RI-bus">
		<stop busStop="busStop#1"   duration="20"/>
		<stop busStop="busStop#2"   duration="20"/>
		<stop busStop="busStop#3"   duration="20"/>
		<stop busStop="busStop#5"   duration="20"/>
		<stop busStop="busStop#6"   duration="20"/>
		<stop busStop="busStop#26"  duration="20"/>
    </vehicle>
	
	<!--route AN-RI-->
	<route id="AN-RI-bus" edges="edge-AN2-AN1 edge-AN1-AO0 edge-AO0-AW2"/>	
	<vehicle id="AJ1" depart="500" type="bus" color="0,1,1" route="AN-RI-bus">
		<stop busStop="busStop#22"  duration="20"/>
		<stop busStop="busStop#14"  duration="20"/>
    </vehicle>
	<vehicle id="AJ2" depart="1100" type="bus" color="0,0,1" route="AN-RI-bus">
		<stop busStop="busStop#22"  duration="20"/>
		<stop busStop="busStop#14"  duration="20"/>
    </vehicle>

<!--route AN-B-C-RI-->
	<route id="AN-B-C-RI-bus" edges="edge-AN2-AN1 edge-AN1-AO0 edge-AO0-BW1 edge-BW1-BO0 edge-BO0-CW1 edge-CW1-CO0 edge-CO0-CS2"/>     
	<vehicle id="AN1" depart="400" type="bus" color="0,1,1" route="AN-B-C-RI-bus">
		<stop busStop="busStop#22"  duration="20"/>
		<stop busStop="busStop#2"   duration="20"/>
		<stop busStop="busStop#3"   duration="20"/>
		<stop busStop="busStop#24"  duration="20"/>
    </vehicle>
	<vehicle id="AN2" depart="1000" type="bus" color="0,0,1" route="AN-B-C-RI-bus">
		<stop busStop="busStop#22"  duration="20"/>
		<stop busStop="busStop#2"   duration="20"/>
		<stop busStop="busStop#3"   duration="20"/>
		<stop busStop="busStop#24"  duration="20"/>
    </vehicle>
<!--route AN-B-C-D-RI-->
	<route id="AN-B-C-D-RI-bus" edges="edge-AN2-AN1 edge-AN1-AO0 edge-AO0-BW1 edge-BW1-BO0 edge-BO0-CW1 edge-CW1-CO0 edge-CO0-DW1 edge-DW1-DO0 edge-DO0-DS2"/>  
	<vehicle id="AO1" depart="00" type="bus" color="0,1,0" route="AN-B-C-D-RI-bus">
		<stop busStop="busStop#22"  duration="20"/>
		<stop busStop="busStop#2"   duration="20"/>
		<stop busStop="busStop#3"   duration="20"/>
		<stop busStop="busStop#5"   duration="20"/>
		<stop busStop="busStop#25"  duration="20"/>
    </vehicle>
	<vehicle id="AO4" depart="600" type="bus" color="0,0,1" route="AN-B-C-D-RI-bus">
		<stop busStop="busStop#22"  duration="20"/>
		<stop busStop="busStop#2"   duration="20"/>
		<stop busStop="busStop#3"   duration="20"/>
		<stop busStop="busStop#5"   duration="20"/>
		<stop busStop="busStop#25"  duration="20"/>
    </vehicle>
<!--route AN-B-C-D-E-LE-->
	<route id="AN-B-C-D-E-LE-bus" edges="edge-AN2-AN1 edge-AN1-AO0 edge-AO0-BW1 edge-BW1-BO0 edge-BO0-CW1 edge-CW1-CO0 edge-CO0-DW1 edge-DW1-DO0 edge-DO0-EW1 edge-EW1-EO0 edge-EO0-EN2"/>  
	<vehicle id="AP1" depart="00" type="bus" color="0,1,1" route="AN-B-C-D-E-LE-bus">
		<stop busStop="busStop#22"  duration="20"/>
		<stop busStop="busStop#2"   duration="20"/>
		<stop busStop="busStop#3"   duration="20"/>
		<stop busStop="busStop#5"   duration="20"/>
		<stop busStop="busStop#6"   duration="20"/>
		<stop busStop="busStop#27"  duration="20"/>
    </vehicle>
	<vehicle id="AP2" depart="900" type="bus" color="1,1,1" route="AN-B-C-D-E-LE-bus">
		<stop busStop="busStop#22"  duration="20"/>
		<stop busStop="busStop#2"   duration="20"/>
		<stop busStop="busStop#3"   duration="20"/>
		<stop busStop="busStop#5"   duration="20"/>
		<stop busStop="busStop#6"   duration="20"/>
		<stop busStop="busStop#27"  duration="20"/>
    </vehicle>
<!--route AN-B-C-D-E-ST-->
	<route id="AN-B-C-D-E-ST-bus" edges="edge-AN2-AN1 edge-AN1-AO0 edge-AO0-BW1 edge-BW1-BO0 edge-BO0-CW1 edge-CW1-CO0 edge-CO0-DW1 edge-DW1-DO0 edge-DO0-EW1 edge-EW1-EO0 edge-EO0-EE2"/>
	<vehicle id="AQ1" depart="00" type="bus" color="1,1,1" route="AN-B-C-D-E-ST-bus">
		<stop busStop="busStop#22"  duration="20"/>
		<stop busStop="busStop#2"   duration="20"/>
		<stop busStop="busStop#3"   duration="20"/>
		<stop busStop="busStop#5"   duration="20"/>
		<stop busStop="busStop#6"   duration="20"/>
		<stop busStop="busStop#7"   duration="20"/>
    </vehicle>
	<vehicle id="AQ2" depart="900" type="bus" color="0,0,1" route="AN-B-C-D-E-ST-bus">
		<stop busStop="busStop#22"  duration="20"/>
		<stop busStop="busStop#2"   duration="20"/>
		<stop busStop="busStop#3"   duration="20"/>
		<stop busStop="busStop#5"   duration="20"/>
		<stop busStop="busStop#6"   duration="20"/>
		<stop busStop="busStop#7"   duration="20"/>
    </vehicle>
<!--route AN-B-C-D-E-RI-->
	<route id="AN-B-C-D-E-RI-bus" edges="edge-AN2-AN1 edge-AN1-AO0 edge-AO0-BW1 edge-BW1-BO0 edge-BO0-CW1 edge-CW1-CO0 edge-CO0-DW1 edge-DW1-DO0 edge-DO0-EW1 edge-EW1-EO0 edge-EO0-ES2"/>  
	<vehicle id="AR1" depart="00" type="bus" color="1,1,1" route="AN-B-C-D-E-RI-bus">
		<stop busStop="busStop#22"  duration="20"/>
		<stop busStop="busStop#2"   duration="20"/>
		<stop busStop="busStop#3"   duration="20"/>
		<stop busStop="busStop#5"   duration="20"/>
		<stop busStop="busStop#6"   duration="20"/>
		<stop busStop="busStop#26"  duration="20"/>
    </vehicle>
	<vehicle id="AR2" depart="900" type="bus" color="0,0,1" route="AN-B-C-D-E-RI-bus">
		<stop busStop="busStop#22"  duration="20"/>
		<stop busStop="busStop#2"   duration="20"/>
		<stop busStop="busStop#3"   duration="20"/>
		<stop busStop="busStop#5"   duration="20"/>
		<stop busStop="busStop#6"   duration="20"/>
		<stop busStop="busStop#26"  duration="20"/>
    </vehicle>
	
<!--route BS-A-ST-->	
	<route id="BS-A-ST-bus" edges="edge-BS2-BS1 edge-BS1-BO0 edge-BO0-AE1 edge-AE1-AO0 edge-AO0-AW2"/>
	<vehicle id="BA1" depart="00" type="bus" color="0,1,0" route="BS-A-ST-bus">
		<stop busStop="busStop#15"  duration="20"/>
		<stop busStop="busStop#13"  duration="20"/>
		<stop busStop="busStop#14"  duration="20"/>
    </vehicle>
	<vehicle id="BA2" depart="900" type="bus" color="0,0,1" route="BS-A-ST-bus">
		<stop busStop="busStop#15"  duration="20"/>
		<stop busStop="busStop#13"  duration="20"/>
		<stop busStop="busStop#14"  duration="20"/>
    </vehicle>
<!--route BS-ST-->
	<route id="BS-ST-bus" edges="edge-BS2-BS1 edge-BS1-BO0 edge-BO0-BN2"/>
	<vehicle id="BC1" depart="00" type="bus" color="0,1,0" route="BS-ST-bus">
		<stop busStop="busStop#15"  duration="20"/>
		<stop busStop="busStop#29"  duration="20"/>
    </vehicle>
	<vehicle id="BC2" depart="300" type="bus" color="0,1,1" route="BS-ST-bus">
		<stop busStop="busStop#15"  duration="20"/>
		<stop busStop="busStop#29"  duration="20"/>
    </vehicle>
	<vehicle id="BC3" depart="600" type="bus" color="1,1,1" route="BS-ST-bus">
		<stop busStop="busStop#15"  duration="20"/>
		<stop busStop="busStop#29"  duration="20"/>
    </vehicle>
	<vehicle id="BC4" depart="900" type="bus" color="0,0,1" route="BS-ST-bus">
		<stop busStop="busStop#15"  duration="20"/>
		<stop busStop="busStop#29"  duration="20"/>
    </vehicle>
<!--route BS-C-D-E-LE-->
	<route id="BS-C-D-E-LE-bus" edges="edge-BS2-BS1 edge-BS1-BO0 edge-BO0-CW1 edge-CW1-CO0 edge-CO0-DW1 edge-DW1-DO0 edge-DO0-EW1 edge-EW1-EO0 edge-EO0-EN2"/>
	<vehicle id="BG1" depart="00" type="bus" color="0,1,0" route="BS-C-D-E-LE-bus">
		<stop busStop="busStop#15"  duration="20"/>
		<stop busStop="busStop#4"   duration="20"/>
		<stop busStop="busStop#5"   duration="20"/>
		<stop busStop="busStop#6"   duration="20"/>
		<stop busStop="busStop#27"  duration="20"/>
    </vehicle>
	<vehicle id="BG2" depart="300" type="bus" color="0,1,1" route="BS-C-D-E-LE-bus">
		<stop busStop="busStop#15"  duration="20"/>
		<stop busStop="busStop#4"   duration="20"/>
		<stop busStop="busStop#5"   duration="20"/>
		<stop busStop="busStop#6"   duration="20"/>
		<stop busStop="busStop#27"  duration="20"/>
    </vehicle>
	<vehicle id="BG3" depart="600" type="bus" color="1,1,1" route="BS-C-D-E-LE-bus">
		<stop busStop="busStop#15"  duration="20"/>
		<stop busStop="busStop#4"   duration="20"/>
		<stop busStop="busStop#5"   duration="20"/>
		<stop busStop="busStop#6"   duration="20"/>
		<stop busStop="busStop#27"  duration="20"/>
    </vehicle>
	<vehicle id="BG4" depart="900" type="bus" color="0,0,1" route="BS-C-D-E-LE-bus">
		<stop busStop="busStop#15"  duration="20"/>
		<stop busStop="busStop#4"   duration="20"/>
		<stop busStop="busStop#5"   duration="20"/>
		<stop busStop="busStop#6"   duration="20"/>
		<stop busStop="busStop#27"  duration="20"/>
    </vehicle>
<!--route BS-C-D-E-ST-->
	<route id="BS-C-D-E-ST-bus" edges="edge-BS2-BS1 edge-BS1-BO0 edge-BO0-CW1 edge-CW1-CO0 edge-CO0-DW1 edge-DW1-DO0 edge-DO0-EW1 edge-EW1-EO0 edge-EO0-EE2"/>
	<vehicle id="BH1" depart="00" type="bus" color="0,1,0" route="BS-C-D-E-ST-bus">
		<stop busStop="busStop#15"  duration="20"/>
		<stop busStop="busStop#4"   duration="20"/>
		<stop busStop="busStop#5"   duration="20"/>
		<stop busStop="busStop#6"   duration="20"/>
		<stop busStop="busStop#7"   duration="20"/>
    </vehicle>
	<vehicle id="BH2" depart="300" type="bus" color="0,1,1" route="BS-C-D-E-ST-bus">
		<stop busStop="busStop#15"  duration="20"/>
		<stop busStop="busStop#4"   duration="20"/>
		<stop busStop="busStop#5"   duration="20"/>
		<stop busStop="busStop#6"   duration="20"/>
		<stop busStop="busStop#7"   duration="20"/>
    </vehicle>
	<vehicle id="BH3" depart="600" type="bus" color="1,1,1" route="BS-C-D-E-ST-bus">
		<stop busStop="busStop#15"  duration="20"/>
		<stop busStop="busStop#4"   duration="20"/>
		<stop busStop="busStop#5"   duration="20"/>
		<stop busStop="busStop#6"   duration="20"/>
		<stop busStop="busStop#7"   duration="20"/>
    </vehicle>
	<vehicle id="BH4" depart="900" type="bus" color="0,0,1" route="BS-C-D-E-ST-bus">
		<stop busStop="busStop#15"  duration="20"/>
		<stop busStop="busStop#4"   duration="20"/>
		<stop busStop="busStop#5"   duration="20"/>
		<stop busStop="busStop#6"   duration="20"/>
		<stop busStop="busStop#7"   duration="20"/>
    </vehicle>
<!--route BS-C-D-E-RI-->
	<route id="BS-C-D-E-RI-bus" edges="edge-BS2-BS1 edge-BS1-BO0 edge-BO0-CW1 edge-CW1-CO0 edge-CO0-DW1 edge-DW1-DO0 edge-DO0-EW1 edge-EW1-EO0 edge-EO0-ES2"/>
	<vehicle id="BI1" depart="00" type="bus" color="0,1,0" route="BS-C-D-E-RI-bus">
		<stop busStop="busStop#15"  duration="20"/>
		<stop busStop="busStop#4"   duration="20"/>
		<stop busStop="busStop#5"   duration="20"/>
		<stop busStop="busStop#6"   duration="20"/>
		<stop busStop="busStop#26"  duration="20"/>
    </vehicle>
	<vehicle id="BI2" depart="300" type="bus" color="0,1,1" route="BS-C-D-E-RI-bus">
		<stop busStop="busStop#15"  duration="20"/>
		<stop busStop="busStop#4"   duration="20"/>
		<stop busStop="busStop#5"   duration="20"/>
		<stop busStop="busStop#6"   duration="20"/>
		<stop busStop="busStop#26"  duration="20"/>
    </vehicle>
	<vehicle id="BI3" depart="600" type="bus" color="1,1,1" route="BS-C-D-E-RI-bus">
		<stop busStop="busStop#15"  duration="20"/>
		<stop busStop="busStop#4"   duration="20"/>
		<stop busStop="busStop#5"   duration="20"/>
		<stop busStop="busStop#6"   duration="20"/>
		<stop busStop="busStop#26"  duration="20"/>
    </vehicle>
	<vehicle id="BI4" depart="900" type="bus" color="0,0,1" route="BS-C-D-E-RI-bus">
		<stop busStop="busStop#15"  duration="20"/>
		<stop busStop="busStop#4"   duration="20"/>
		<stop busStop="busStop#5"   duration="20"/>
		<stop busStop="busStop#6"   duration="20"/>
		<stop busStop="busStop#26"  duration="20"/>
    </vehicle>	

<!--route BN-A-ST-->	
	<route id="BN-A-ST-bus" edges="edge-BN2-BN1 edge-BN1-BO0 edge-BO0-AE1 edge-AE1-AO0 edge-AO0-AW2"/>
	<vehicle id="BJ1" depart="00" type="bus" color="0,1,0" route="BN-A-ST-bus">
		<stop busStop="busStop#21"  duration="20"/>
		<stop busStop="busStop#13"  duration="20"/>
		<stop busStop="busStop#14"  duration="20"/>
    </vehicle>
	<vehicle id="BJ2" depart="300" type="bus" color="0,1,1" route="BN-A-ST-bus">
		<stop busStop="busStop#21"  duration="20"/>
		<stop busStop="busStop#13"  duration="20"/>
		<stop busStop="busStop#14"  duration="20"/>
    </vehicle>
	<vehicle id="BJ3" depart="600" type="bus" color="1,1,1" route="BN-A-ST-bus">
		<stop busStop="busStop#21"  duration="20"/>
		<stop busStop="busStop#13"  duration="20"/>
		<stop busStop="busStop#14"  duration="20"/>
    </vehicle>
	<vehicle id="BJ4" depart="900" type="bus" color="0,0,1" route="BN-A-ST-bus">
		<stop busStop="busStop#21"  duration="20"/>
		<stop busStop="busStop#13"  duration="20"/>
		<stop busStop="busStop#14"  duration="20"/>
    </vehicle>
<!--route BN-ST-->
	<route id="BN-ST-bus" edges="edge-BN2-BN1 edge-BN1-BO0 edge-BO0-BS2"/>
	<vehicle id="BL1" depart="00" type="bus" color="0,1,0" route="BN-ST-bus">
		<stop busStop="busStop#21"  duration="20"/>
		<stop busStop="busStop#23"  duration="20"/>
    </vehicle>
	<vehicle id="BL2" depart="300" type="bus" color="0,1,1" route="BN-ST-bus">
		<stop busStop="busStop#21"  duration="20"/>
		<stop busStop="busStop#23"  duration="20"/>
    </vehicle>
	<vehicle id="BL3" depart="600" type="bus" color="1,1,1" route="BN-ST-bus">
		<stop busStop="busStop#21"  duration="20"/>
		<stop busStop="busStop#23"  duration="20"/>
    </vehicle>
	<vehicle id="BL4" depart="900" type="bus" color="0,0,1" route="BN-ST-bus">
		<stop busStop="busStop#21"  duration="20"/>
		<stop busStop="busStop#23"  duration="20"/>
    </vehicle>
<!--route BN-C-D-E-LE-->	
	<route id="BN-C-D-E-LE-bus" edges="edge-BN2-BN1 edge-BN1-BO0 edge-BO0-CW1 edge-CW1-CO0 edge-CO0-DW1 edge-DW1-DO0 edge-DO0-EW1 edge-EW1-EO0 edge-EO0-EN2"/>
	<vehicle id="BP1" depart="00" type="bus" color="0,1,0" route="BN-C-D-E-LE-bus">
		<stop busStop="busStop#21"  duration="20"/>
		<stop busStop="busStop#4"   duration="20"/>
		<stop busStop="busStop#5"   duration="20"/>
		<stop busStop="busStop#6"   duration="20"/>